<?xml version="1.0" encoding="UTF-8"?>

<!-- generated on 2026-05-22 13:00:53.406309 by randomTrips.py UNKNOWN
<configuration>
    <net-file value="/home/shiku/thesis/network/midtown.net.xml"/>
    <output-trip-file value="/home/shiku/thesis/demand/dense_trips.xml"/>
    <trip-attributes value="type=&quot;ev_swarm&quot;"/>
    <min-distance value="200.0"/>
    <end value="3400.0"/>
    <period value="1.25"/>
</configuration>
-->

<routes xmlns:xsi="http://www.w3.org/2001/XMLSchema-instance" xsi:noNamespaceSchemaLocation="http://sumo.dlr.de/xsd/routes_file.xsd">
    <trip id="0" depart="0.00" from="46481747#0" to="-388696206#3" type="ev_swarm"/>
    <trip id="1" depart="1.25" from="1316831699#0" to="1211608942#0" type="ev_swarm"/>
    <trip id="2" depart="2.50" from="525729008#0" to="46522003#0" type="ev_swarm"/>
    <trip id="3" depart="3.75" from="700951339#0" to="1027181006#0" type="ev_swarm"/>
    <trip id="4" depart="5.00" from="36806659" to="-420904618#3" type="ev_swarm"/>
    <trip id="5" depart="6.25" from="1201651435#4" to="420904659#0" type="ev_swarm"/>
    <trip id="6" depart="7.50" from="-388696206#3" to="1157664114#0" type="ev_swarm"/>
    <trip id="7" depart="8.75" from="46482604" to="453367786#0" type="ev_swarm"/>
    <trip id="8" depart="10.00" from="1201651437#4" to="458180199#3" type="ev_swarm"/>
    <trip id="9" depart="11.25" from="5672464#0" to="-1272613980#2" type="ev_swarm"/>
    <trip id="10" depart="12.50" from="169269031" to="1090370031" type="ev_swarm"/>
    <trip id="11" depart="13.75" from="966105510#0" to="169267539" type="ev_swarm"/>
    <trip id="12" depart="15.00" from="1027189509#2" to="1034529064#0" type="ev_swarm"/>
    <trip id="13" depart="16.25" from="587061869#0" to="46201643" type="ev_swarm"/>
    <trip id="14" depart="17.50" from="5672149#3" to="511699184#0" type="ev_swarm"/>
    <trip id="15" depart="18.75" from="441405436#0" to="974611016#0" type="ev_swarm"/>
    <trip id="16" depart="20.00" from="226041005#0" to="458166894#0" type="ev_swarm"/>
    <trip id="17" depart="21.25" from="569345535#0" to="464516471#13" type="ev_swarm"/>
    <trip id="18" depart="22.50" from="640327290" to="458180190#0" type="ev_swarm"/>
    <trip id="19" depart="23.75" from="496992867#0" to="-5670600#1" type="ev_swarm"/>
    <trip id="20" depart="25.00" from="1207834768#0" to="1376704198#0" type="ev_swarm"/>
    <trip id="21" depart="26.25" from="1025734019#0" to="1238990622#0" type="ev_swarm"/>
    <trip id="22" depart="27.50" from="1037772009#0" to="1320234484#8" type="ev_swarm"/>
    <trip id="23" depart="28.75" from="46469732#0" to="207542284" type="ev_swarm"/>
    <trip id="24" depart="30.00" from="226040992#1" to="1201651434#0" type="ev_swarm"/>
    <trip id="25" depart="31.25" from="1316295724#0" to="884400281" type="ev_swarm"/>
    <trip id="26" depart="32.50" from="46482602#2" to="46435596#0" type="ev_swarm"/>
    <trip id="27" depart="33.75" from="1123877140#0" to="511699183#0" type="ev_swarm"/>
    <trip id="28" depart="35.00" from="1106482765#3" to="226041012#3" type="ev_swarm"/>
    <trip id="29" depart="36.25" from="989265272#0" to="46482538#0" type="ev_swarm"/>
    <trip id="30" depart="37.50" from="458166893#0" to="46538335#0" type="ev_swarm"/>
    <trip id="31" depart="38.75" from="573228989#0" to="5670803#0" type="ev_swarm"/>
    <trip id="32" depart="40.00" from="1211608942#0" to="-420904658#3" type="ev_swarm"/>
    <trip id="33" depart="41.25" from="1455345750#3" to="1316295725#3" type="ev_swarm"/>
    <trip id="34" depart="42.50" from="1198594029#0" to="936539648#0" type="ev_swarm"/>
    <trip id="35" depart="43.75" from="682360554#0" to="1455345751#0" type="ev_swarm"/>
    <trip id="36" depart="45.00" from="46492007" to="273019814#2" type="ev_swarm"/>
    <trip id="37" depart="46.25" from="771759767" to="415849235#0" type="ev_swarm"/>
    <trip id="38" depart="47.50" from="1313135176#0" to="1287670367" type="ev_swarm"/>
    <trip id="39" depart="48.75" from="458180193#0" to="733667933#3" type="ev_swarm"/>
    <trip id="40" depart="50.00" from="273019810#3" to="1207834766#0" type="ev_swarm"/>
    <trip id="41" depart="51.25" from="991939499#3" to="420906753#0" type="ev_swarm"/>
    <trip id="42" depart="52.50" from="1027189507#0" to="-5671315#1" type="ev_swarm"/>
    <trip id="43" depart="53.75" from="1041012063#0" to="46469721" type="ev_swarm"/>
    <trip id="44" depart="55.00" from="5671425#0" to="36806683" type="ev_swarm"/>
    <trip id="45" depart="56.25" from="1018454468#0" to="226041020#0" type="ev_swarm"/>
    <trip id="46" depart="57.50" from="989793294#0" to="439933932#0" type="ev_swarm"/>
    <trip id="47" depart="58.75" from="974611015#0" to="658498537" type="ev_swarm"/>
    <trip id="48" depart="60.00" from="-139919706#1" to="505317783#0" type="ev_swarm"/>
    <trip id="49" depart="61.25" from="46538335#0" to="447001272#3" type="ev_swarm"/>
    <trip id="50" depart="62.50" from="1316295724#0" to="46482539#0" type="ev_swarm"/>
    <trip id="51" depart="63.75" from="1041018377#0" to="379843699" type="ev_swarm"/>
    <trip id="52" depart="65.00" from="384826723#0" to="963613972#0" type="ev_swarm"/>
    <trip id="53" depart="66.25" from="682360554#0" to="1316295713#6" type="ev_swarm"/>
    <trip id="54" depart="67.50" from="420902878#0" to="1136391283#3" type="ev_swarm"/>
    <trip id="55" depart="68.75" from="771759765" to="671208357#0" type="ev_swarm"/>
    <trip id="56" depart="70.00" from="1388287829#0" to="46481747#0" type="ev_swarm"/>
    <trip id="57" depart="71.25" from="46334595#0" to="1090370026#0" type="ev_swarm"/>
    <trip id="58" depart="72.50" from="5669356" to="448686048#0" type="ev_swarm"/>
    <trip id="59" depart="73.75" from="5670873#0" to="441405436#0" type="ev_swarm"/>
    <trip id="60" depart="75.00" from="-1087048475#1" to="1462663361#0" type="ev_swarm"/>
    <trip id="61" depart="76.25" from="-36271338#4" to="846142552#0" type="ev_swarm"/>
    <trip id="62" depart="77.50" from="68668519#0" to="569345539#0" type="ev_swarm"/>
    <trip id="63" depart="78.75" from="1442249234#14" to="-988980354#1" type="ev_swarm"/>
    <trip id="64" depart="80.00" from="68325075-AddedOnRampEdge" to="954520388#0" type="ev_swarm"/>
    <trip id="65" depart="81.25" from="1027130509#0" to="420890028#0" type="ev_swarm"/>
    <trip id="66" depart="82.50" from="1021068251#0" to="5669218" type="ev_swarm"/>
    <trip id="67" depart="83.75" from="5669669#4" to="1051750428#0" type="ev_swarm"/>
    <trip id="68" depart="85.00" from="420509471#0" to="458166892#3" type="ev_swarm"/>
    <trip id="69" depart="86.25" from="1313135176#0" to="68325075" type="ev_swarm"/>
    <trip id="70" depart="87.50" from="36806661" to="1201651435#4" type="ev_swarm"/>
    <trip id="71" depart="88.75" from="447001270#0" to="511699184#0" type="ev_swarm"/>
    <trip id="72" depart="90.00" from="1156946160#0" to="1455345750#3" type="ev_swarm"/>
    <trip id="73" depart="91.25" from="989793293#0" to="46482604" type="ev_swarm"/>
    <trip id="74" depart="92.50" from="368938761#0" to="421850830#0" type="ev_swarm"/>
    <trip id="75" depart="93.75" from="1049920717#0" to="1212776159#0" type="ev_swarm"/>
    <trip id="76" depart="95.00" from="167922076#0" to="458180199#0" type="ev_swarm"/>
    <trip id="77" depart="96.25" from="1211608943#0" to="1207834767#0" type="ev_swarm"/>
    <trip id="78" depart="97.50" from="1022184081#0" to="46469725" type="ev_swarm"/>
    <trip id="79" depart="98.75" from="1211049194#0" to="767683107#0" type="ev_swarm"/>
    <trip id="80" depart="100.00" from="630828583#0" to="1022184083#0" type="ev_swarm"/>
    <trip id="81" depart="101.25" from="1234631159#0" to="46520921#0" type="ev_swarm"/>
    <trip id="82" depart="102.50" from="1201643838#0" to="1053371047" type="ev_swarm"/>
    <trip id="83" depart="103.75" from="890023178#0" to="458180186#5" type="ev_swarm"/>
    <trip id="84" depart="105.00" from="420499931#0" to="5671192#3" type="ev_swarm"/>
    <trip id="85" depart="106.25" from="5672149#3" to="1150636500#0" type="ev_swarm"/>
    <trip id="86" depart="107.50" from="1030123273#3" to="36807165" type="ev_swarm"/>
    <trip id="87" depart="108.75" from="36806670" to="420494981#0" type="ev_swarm"/>
    <trip id="88" depart="110.00" from="511699184#0" to="46521993#0" type="ev_swarm"/>
    <trip id="89" depart="111.25" from="988984235#0" to="1037772009#0" type="ev_swarm"/>
    <trip id="90" depart="112.50" from="273895448#0" to="194920158#4" type="ev_swarm"/>
    <trip id="91" depart="113.75" from="1136952921#0" to="384649120#5" type="ev_swarm"/>
    <trip id="92" depart="115.00" from="36806659" to="1320234485#0" type="ev_swarm"/>
    <trip id="93" depart="116.25" from="127693383#3" to="812949648#0" type="ev_swarm"/>
    <trip id="94" depart="117.50" from="452322757#3" to="-587038129#2" type="ev_swarm"/>
    <trip id="95" depart="118.75" from="992144532" to="569345545#0" type="ev_swarm"/>
    <trip id="96" depart="120.00" from="968513230#3" to="814278019#0" type="ev_swarm"/>
    <trip id="97" depart="121.25" from="588157337#0" to="1117867038#0" type="ev_swarm"/>
    <trip id="98" depart="122.50" from="420872214" to="1201651437#4" type="ev_swarm"/>
    <trip id="99" depart="123.75" from="273019814#2" to="-989265269#2" type="ev_swarm"/>
    <trip id="100" depart="125.00" from="1313135176#0" to="5671192#3" type="ev_swarm"/>
    <trip id="101" depart="126.25" from="386972970#0" to="36806896#0" type="ev_swarm"/>
    <trip id="102" depart="127.50" from="966105510#0" to="989793293#0" type="ev_swarm"/>
    <trip id="103" depart="128.75" from="458166892#3" to="499172074#9" type="ev_swarm"/>
    <trip id="104" depart="130.00" from="1090370025#0" to="1396611411#0" type="ev_swarm"/>
    <trip id="105" depart="131.25" from="968513230#0" to="458180191#3" type="ev_swarm"/>
    <trip id="106" depart="132.50" from="447001272#1" to="542096279#0" type="ev_swarm"/>
    <trip id="107" depart="133.75" from="-68325079#1" to="458180195#0" type="ev_swarm"/>
    <trip id="108" depart="135.00" from="420903240#0" to="628093103#0" type="ev_swarm"/>
    <trip id="109" depart="136.25" from="1090370031" to="968394452#0" type="ev_swarm"/>
    <trip id="110" depart="137.50" from="1025734019#0" to="1136952921#0" type="ev_swarm"/>
    <trip id="111" depart="138.75" from="460585328#15" to="46522001#0" type="ev_swarm"/>
    <trip id="112" depart="140.00" from="1224490986#0" to="1051734606#0" type="ev_swarm"/>
    <trip id="113" depart="141.25" from="68674968#8" to="1287670364" type="ev_swarm"/>
    <trip id="114" depart="142.50" from="460585328#12" to="464516471#16" type="ev_swarm"/>
    <trip id="115" depart="143.75" from="36801164" to="458180194#0" type="ev_swarm"/>
    <trip id="116" depart="145.00" from="421852030#0" to="872052109#0" type="ev_swarm"/>
    <trip id="117" depart="146.25" from="1165644579#0" to="499172074#0" type="ev_swarm"/>
    <trip id="118" depart="147.50" from="1238990622#0" to="273019814#2" type="ev_swarm"/>
    <trip id="119" depart="148.75" from="46521993#0" to="1413159922#0" type="ev_swarm"/>
    <trip id="120" depart="150.00" from="1455345750#6" to="542257009#3" type="ev_swarm"/>
    <trip id="121" depart="151.25" from="1022184082#0" to="397795464#0" type="ev_swarm"/>
    <trip id="122" depart="152.50" from="992144531#0" to="989793293#0" type="ev_swarm"/>
    <trip id="123" depart="153.75" from="1022184083#0" to="1201651437#0" type="ev_swarm"/>
    <trip id="124" depart="155.00" from="1313135176#0" to="872052106" type="ev_swarm"/>
    <trip id="125" depart="156.25" from="68674960#0" to="68674961#4" type="ev_swarm"/>
    <trip id="126" depart="157.50" from="226040992#1" to="1106474772#0" type="ev_swarm"/>
    <trip id="127" depart="158.75" from="569345537#8" to="496990647#3" type="ev_swarm"/>
    <trip id="128" depart="160.00" from="46435596#0" to="988987061#0" type="ev_swarm"/>
    <trip id="129" depart="161.25" from="46490538#0" to="-1320232776#1" type="ev_swarm"/>
    <trip id="130" depart="162.50" from="5673380#0" to="1413159922#0" type="ev_swarm"/>
    <trip id="131" depart="163.75" from="1052631409#0" to="1049879868#0" type="ev_swarm"/>
    <trip id="132" depart="165.00" from="1040748541" to="458166895#0" type="ev_swarm"/>
    <trip id="133" depart="166.25" from="1316295726#0" to="46240204#0" type="ev_swarm"/>
    <trip id="134" depart="167.50" from="505317783#0" to="1198594028#0" type="ev_swarm"/>
    <trip id="135" depart="168.75" from="46469730" to="1316295713#6" type="ev_swarm"/>
    <trip id="136" depart="170.00" from="420892271#1" to="767683107#0" type="ev_swarm"/>
    <trip id="137" depart="171.25" from="587038081#0" to="1030123270#0" type="ev_swarm"/>
    <trip id="138" depart="172.50" from="36806670" to="1320234484#3" type="ev_swarm"/>
    <trip id="139" depart="173.75" from="-1088325196#1" to="5670139#0" type="ev_swarm"/>
    <trip id="140" depart="175.00" from="46481738#0" to="1313135177#0" type="ev_swarm"/>
    <trip id="141" depart="176.25" from="540356239#9" to="458166893#6" type="ev_swarm"/>
    <trip id="142" depart="177.50" from="36806683" to="-1320549615#1" type="ev_swarm"/>
    <trip id="143" depart="178.75" from="1022813500#1" to="68674968#12" type="ev_swarm"/>
    <trip id="144" depart="180.00" from="742215272#0" to="453367786#3" type="ev_swarm"/>
    <trip id="145" depart="181.25" from="569345538#0" to="458180193#6" type="ev_swarm"/>
    <trip id="146" depart="182.50" from="1088327048#0" to="1051750427#0" type="ev_swarm"/>
    <trip id="147" depart="183.75" from="1442249234#2" to="739911956#0" type="ev_swarm"/>
    <trip id="148" depart="185.00" from="5671629#0" to="658498537" type="ev_swarm"/>
    <trip id="149" depart="186.25" from="727702633#0" to="1201651434#0" type="ev_swarm"/>
    <trip id="150" depart="187.50" from="127693383#0" to="1038784416#0" type="ev_swarm"/>
    <trip id="151" depart="188.75" from="5670874#0" to="68674968#4" type="ev_swarm"/>
    <trip id="152" depart="190.00" from="31984130#1" to="464516471#3" type="ev_swarm"/>
    <trip id="153" depart="191.25" from="1088327054" to="846142553#0" type="ev_swarm"/>
    <trip id="154" depart="192.50" from="658488333#0" to="974611019#0" type="ev_swarm"/>
    <trip id="155" depart="193.75" from="5672483#0" to="68674965#0" type="ev_swarm"/>
    <trip id="156" depart="195.00" from="-384649121#7" to="518451332#0" type="ev_swarm"/>
    <trip id="157" depart="196.25" from="1499498642#1" to="858965315#0" type="ev_swarm"/>
    <trip id="158" depart="197.50" from="5672142#1" to="658499784" type="ev_swarm"/>
    <trip id="159" depart="198.75" from="5672483#0" to="1316295725#0" type="ev_swarm"/>
    <trip id="160" depart="200.00" from="5671276#0" to="1041018376#0" type="ev_swarm"/>
    <trip id="161" depart="201.25" from="658583340#3" to="658488333#0" type="ev_swarm"/>
    <trip id="162" depart="202.50" from="1202082365#0" to="5673561#0" type="ev_swarm"/>
    <trip id="163" depart="203.75" from="397795464#0" to="1442249234#14" type="ev_swarm"/>
    <trip id="164" depart="205.00" from="5671574#0" to="1222356566#0" type="ev_swarm"/>
    <trip id="165" depart="206.25" from="-384178812#2" to="1156946156#0" type="ev_swarm"/>
    <trip id="166" depart="207.50" from="1498928837#0" to="658499799" type="ev_swarm"/>
    <trip id="167" depart="208.75" from="968394456#0" to="1320234485#0" type="ev_swarm"/>
    <trip id="168" depart="210.00" from="46482539#0" to="273895450#0" type="ev_swarm"/>
    <trip id="169" depart="211.25" from="988977545#10" to="447001271#4" type="ev_swarm"/>
    <trip id="170" depart="212.50" from="968513231#0" to="1136391283#3" type="ev_swarm"/>
    <trip id="171" depart="213.75" from="968394454#0" to="1316295724#3" type="ev_swarm"/>
    <trip id="172" depart="215.00" from="1040888764#0" to="379843699" type="ev_swarm"/>
    <trip id="173" depart="216.25" from="511699183#0" to="1455345750#9" type="ev_swarm"/>
    <trip id="174" depart="217.50" from="46226335#0" to="420907902#0" type="ev_swarm"/>
    <trip id="175" depart="218.75" from="226041020#0" to="458180190#0" type="ev_swarm"/>
    <trip id="176" depart="220.00" from="1287670369" to="497165753#12" type="ev_swarm"/>
    <trip id="177" depart="221.25" from="-1088325194" to="814278019#0" type="ev_swarm"/>
    <trip id="178" depart="222.50" from="446193620#0" to="500717399#0" type="ev_swarm"/>
    <trip id="179" depart="223.75" from="541331485#0" to="46520921#3" type="ev_swarm"/>
    <trip id="180" depart="225.00" from="195743345#0" to="1022184082#0" type="ev_swarm"/>
    <trip id="181" depart="226.25" from="46492639#0" to="167922071#0" type="ev_swarm"/>
    <trip id="182" depart="227.50" from="1455345750#0" to="589494600" type="ev_swarm"/>
    <trip id="183" depart="228.75" from="505777310" to="1413518738" type="ev_swarm"/>
    <trip id="184" depart="230.00" from="1442249234#4" to="350726030#0" type="ev_swarm"/>
    <trip id="185" depart="231.25" from="273895447" to="1388287829#0" type="ev_swarm"/>
    <trip id="186" depart="232.50" from="1051745205#0" to="36806677" type="ev_swarm"/>
    <trip id="187" depart="233.75" from="936539648#0" to="46522003#0" type="ev_swarm"/>
    <trip id="188" depart="235.00" from="733667933#3" to="464515890#0" type="ev_swarm"/>
    <trip id="189" depart="236.25" from="1413159922#0" to="457948936#0" type="ev_swarm"/>
    <trip id="190" depart="237.50" from="-1087048475#1" to="1376704196#4" type="ev_swarm"/>
    <trip id="191" depart="238.75" from="36806903#0" to="458180192#0" type="ev_swarm"/>
    <trip id="192" depart="240.00" from="46490538#5" to="420356171#3" type="ev_swarm"/>
    <trip id="193" depart="241.25" from="381477008#0" to="1201651437#4" type="ev_swarm"/>
    <trip id="194" depart="242.50" from="420499932#0" to="743358443#0" type="ev_swarm"/>
    <trip id="195" depart="243.75" from="5671629#0" to="1123877141#0" type="ev_swarm"/>
    <trip id="196" depart="245.00" from="1027130508#0" to="420908138#0" type="ev_swarm"/>
    <trip id="197" depart="246.25" from="46469727#3" to="167922077#0" type="ev_swarm"/>
    <trip id="198" depart="247.50" from="5673515#0" to="542257009#3" type="ev_swarm"/>
    <trip id="199" depart="248.75" from="46521998#1" to="1212776159#0" type="ev_swarm"/>
    <trip id="200" depart="250.00" from="1156946158#0" to="-384826723#2" type="ev_swarm"/>
    <trip id="201" depart="251.25" from="1268207914#0" to="420512232#0" type="ev_swarm"/>
    <trip id="202" depart="252.50" from="588168464#0" to="1023136586#0" type="ev_swarm"/>
    <trip id="203" depart="253.75" from="350726030#0" to="46469723#0" type="ev_swarm"/>
    <trip id="204" depart="255.00" from="1150636500#0" to="496986803#13" type="ev_swarm"/>
    <trip id="205" depart="256.25" from="420901690#0" to="127693383#3" type="ev_swarm"/>
    <trip id="206" depart="257.50" from="46492009" to="-1136952921#1" type="ev_swarm"/>
    <trip id="207" depart="258.75" from="542257009#3" to="5670124" type="ev_swarm"/>
    <trip id="208" depart="260.00" from="1040748541" to="36806903#0" type="ev_swarm"/>
    <trip id="209" depart="261.25" from="1124078899#0" to="966105510#0" type="ev_swarm"/>
    <trip id="210" depart="262.50" from="420907906#0" to="-587038129#2" type="ev_swarm"/>
    <trip id="211" depart="263.75" from="127693383#0" to="600848479#0" type="ev_swarm"/>
    <trip id="212" depart="265.00" from="388696207#0" to="5672149#0" type="ev_swarm"/>
    <trip id="213" depart="266.25" from="46520921#0" to="988987062" type="ev_swarm"/>
    <trip id="214" depart="267.50" from="460585328#15" to="954929768#0" type="ev_swarm"/>
    <trip id="215" depart="268.75" from="700951338#0" to="464515614#0" type="ev_swarm"/>
    <trip id="216" depart="270.00" from="505777310" to="420904659#0" type="ev_swarm"/>
    <trip id="217" depart="271.25" from="569345537#0" to="457948936#0" type="ev_swarm"/>
    <trip id="218" depart="272.50" from="717625448#1" to="541350711#0" type="ev_swarm"/>
    <trip id="219" depart="273.75" from="420499932#3" to="1313135172" type="ev_swarm"/>
    <trip id="220" depart="275.00" from="127693103#0" to="46481738#3" type="ev_swarm"/>
    <trip id="221" depart="276.25" from="5669669#4" to="438384693#0" type="ev_swarm"/>
    <trip id="222" depart="277.50" from="464683341#0" to="1320234482#0" type="ev_swarm"/>
    <trip id="223" depart="278.75" from="1023238044" to="1364312922" type="ev_swarm"/>
    <trip id="224" depart="280.00" from="1316295726#0" to="1461919267" type="ev_swarm"/>
    <trip id="225" depart="281.25" from="447001271#1" to="1087744935#0" type="ev_swarm"/>
    <trip id="226" depart="282.50" from="1212776159#0" to="496983398#0" type="ev_swarm"/>
    <trip id="227" depart="283.75" from="496993762#0" to="1021051876#0" type="ev_swarm"/>
    <trip id="228" depart="285.00" from="31984136#0" to="452322757#0" type="ev_swarm"/>
    <trip id="229" depart="286.25" from="36185650#0" to="1201643837#0" type="ev_swarm"/>
    <trip id="230" depart="287.50" from="36801355" to="767683107#0" type="ev_swarm"/>
    <trip id="231" depart="288.75" from="458180192#0" to="496986803#0" type="ev_swarm"/>
    <trip id="232" depart="290.00" from="619454130#0" to="5669664#0" type="ev_swarm"/>
    <trip id="233" depart="291.25" from="226041006#0" to="-1272613980#2" type="ev_swarm"/>
    <trip id="234" depart="292.50" from="195743182#0" to="542257982#0" type="ev_swarm"/>
    <trip id="235" depart="293.75" from="600848479#0" to="962626218#0" type="ev_swarm"/>
    <trip id="236" depart="295.00" from="36801164" to="542096279#0" type="ev_swarm"/>
    <trip id="237" depart="296.25" from="452319915" to="46201643" type="ev_swarm"/>
    <trip id="238" depart="297.50" from="1201651437#4" to="1207834766#0" type="ev_swarm"/>
    <trip id="239" depart="298.75" from="36807165" to="-420872209#1" type="ev_swarm"/>
    <trip id="240" depart="300.00" from="167922073#0" to="46522006#0" type="ev_swarm"/>
    <trip id="241" depart="301.25" from="273895449#0" to="1106482769#0" type="ev_swarm"/>
    <trip id="242" depart="302.50" from="420356171#3" to="1051750427#0" type="ev_swarm"/>
    <trip id="243" depart="303.75" from="464516471#6" to="-420356169#3" type="ev_swarm"/>
    <trip id="244" depart="305.00" from="226041031" to="458177133#8" type="ev_swarm"/>
    <trip id="245" depart="306.25" from="-388696206#3" to="46482541#0" type="ev_swarm"/>
    <trip id="246" depart="307.50" from="1053371047" to="420356168#0" type="ev_swarm"/>
    <trip id="247" depart="308.75" from="-5670600#1" to="226041012#0" type="ev_swarm"/>
    <trip id="248" depart="310.00" from="1198594030#0" to="1499234747" type="ev_swarm"/>
    <trip id="249" depart="311.25" from="5669226-AddedOnRampEdge" to="226041012#0" type="ev_swarm"/>
    <trip id="250" depart="312.50" from="542257430#0" to="569345539#0" type="ev_swarm"/>
    <trip id="251" depart="313.75" from="1287670362" to="1027130508#0" type="ev_swarm"/>
    <trip id="252" depart="315.00" from="-36271338#4" to="448686048#0" type="ev_swarm"/>
    <trip id="253" depart="316.25" from="992144532" to="195743182#6" type="ev_swarm"/>
    <trip id="254" depart="317.50" from="46482604" to="5671115#7" type="ev_swarm"/>
    <trip id="255" depart="318.75" from="46482611#0" to="542258060#0" type="ev_swarm"/>
    <trip id="256" depart="320.00" from="955205137#0" to="1165644579#0" type="ev_swarm"/>
    <trip id="257" depart="321.25" from="-36801165#1" to="1090370025#0" type="ev_swarm"/>
    <trip id="258" depart="322.50" from="1051744070#0" to="46520921#0" type="ev_swarm"/>
    <trip id="259" depart="323.75" from="458177129#0" to="1207834765#0" type="ev_swarm"/>
    <trip id="260" depart="325.00" from="496989355#3" to="5669669#0" type="ev_swarm"/>
    <trip id="261" depart="326.25" from="1117867028" to="46334595#0" type="ev_swarm"/>
    <trip id="262" depart="327.50" from="542255948#0" to="1049879867#0" type="ev_swarm"/>
    <trip id="263" depart="328.75" from="5673561#0" to="968394454#4" type="ev_swarm"/>
    <trip id="264" depart="330.00" from="1040766903" to="-420356168#4" type="ev_swarm"/>
    <trip id="265" depart="331.25" from="1455345748#3" to="46522003#0" type="ev_swarm"/>
    <trip id="266" depart="332.50" from="968394450#0" to="273895447" type="ev_swarm"/>
    <trip id="267" depart="333.75" from="499172074#0" to="1025734018#0" type="ev_swarm"/>
    <trip id="268" depart="335.00" from="492489884#0" to="46469720#0" type="ev_swarm"/>
    <trip id="269" depart="336.25" from="1037772010#0" to="5670197#0" type="ev_swarm"/>
    <trip id="270" depart="337.50" from="589494595#0" to="46139020" type="ev_swarm"/>
    <trip id="271" depart="338.75" from="1049920717#0" to="988977545#10" type="ev_swarm"/>
    <trip id="272" depart="340.00" from="5671115#7" to="195743182#0" type="ev_swarm"/>
    <trip id="273" depart="341.25" from="36806896#0" to="226041002#1" type="ev_swarm"/>
    <trip id="274" depart="342.50" from="420904618#0" to="194926846#0" type="ev_swarm"/>
    <trip id="275" depart="343.75" from="588168464#0" to="569345518#0" type="ev_swarm"/>
    <trip id="276" depart="345.00" from="1038784416#0" to="968394452#0" type="ev_swarm"/>
    <trip id="277" depart="346.25" from="46469732#0" to="569345537#5" type="ev_swarm"/>
    <trip id="278" depart="347.50" from="497165753#0" to="380098431" type="ev_swarm"/>
    <trip id="279" depart="348.75" from="518451327#0" to="968394455#0" type="ev_swarm"/>
    <trip id="280" depart="350.00" from="1316295725#3" to="5672483#0" type="ev_swarm"/>
    <trip id="281" depart="351.25" from="446193620#0" to="420872214" type="ev_swarm"/>
    <trip id="282" depart="352.50" from="36807165" to="511699185#0" type="ev_swarm"/>
    <trip id="283" depart="353.75" from="1316295724#3" to="626514137#0" type="ev_swarm"/>
    <trip id="284" depart="355.00" from="569345537#0" to="1027181005#0" type="ev_swarm"/>
    <trip id="285" depart="356.25" from="68674961#0" to="127693383#3" type="ev_swarm"/>
    <trip id="286" depart="357.50" from="420356169#0" to="46435657" type="ev_swarm"/>
    <trip id="287" depart="358.75" from="226041005#4" to="-420872209#1" type="ev_swarm"/>
    <trip id="288" depart="360.00" from="589494595#0" to="1136460177#0" type="ev_swarm"/>
    <trip id="289" depart="361.25" from="1201643836#0" to="5672118#0" type="ev_swarm"/>
    <trip id="290" depart="362.50" from="169269031" to="68674961#8" type="ev_swarm"/>
    <trip id="291" depart="363.75" from="496989355#6" to="1320234484#0" type="ev_swarm"/>
    <trip id="292" depart="365.00" from="-1320549615#1" to="954520389#0" type="ev_swarm"/>
    <trip id="293" depart="366.25" from="1027130509#0" to="505317783#0" type="ev_swarm"/>
    <trip id="294" depart="367.50" from="420892271#1" to="554083352" type="ev_swarm"/>
    <trip id="295" depart="368.75" from="492489884#0" to="46482600" type="ev_swarm"/>
    <trip id="296" depart="370.00" from="420901679#0" to="5671629#0" type="ev_swarm"/>
    <trip id="297" depart="371.25" from="1027189509#2" to="1207834768#0" type="ev_swarm"/>
    <trip id="298" depart="372.50" from="492489893#0" to="1442249234#4" type="ev_swarm"/>
    <trip id="299" depart="373.75" from="458180191#0" to="420509471#0" type="ev_swarm"/>
    <trip id="300" depart="375.00" from="438385431#9" to="36806906#0" type="ev_swarm"/>
    <trip id="301" depart="376.25" from="542096278#0" to="167922071#0" type="ev_swarm"/>
    <trip id="302" depart="377.50" from="496990647#3" to="1316831694#0" type="ev_swarm"/>
    <trip id="303" depart="378.75" from="127693383#6" to="1051734606#0" type="ev_swarm"/>
    <trip id="304" depart="380.00" from="1150636497#0" to="1049920718#0" type="ev_swarm"/>
    <trip id="305" depart="381.25" from="441405436#0" to="5669226" type="ev_swarm"/>
    <trip id="306" depart="382.50" from="1136460176#0" to="1202082365#0" type="ev_swarm"/>
    <trip id="307" depart="383.75" from="420872177#0" to="511699178#0" type="ev_swarm"/>
    <trip id="308" depart="385.00" from="986615539#0" to="438385431#6" type="ev_swarm"/>
    <trip id="309" depart="386.25" from="1320549615#0" to="1037772011" type="ev_swarm"/>
    <trip id="310" depart="387.50" from="1150636499#0" to="1222356566#0" type="ev_swarm"/>
    <trip id="311" depart="388.75" from="1135620538#0" to="-167922072#1" type="ev_swarm"/>
    <trip id="312" depart="390.00" from="439933932#0" to="1320232776#0" type="ev_swarm"/>
    <trip id="313" depart="391.25" from="974611018#0" to="458166895#0" type="ev_swarm"/>
    <trip id="314" depart="392.50" from="496986803#3" to="1051750425#0" type="ev_swarm"/>
    <trip id="315" depart="393.75" from="658498543#2" to="420901690#0" type="ev_swarm"/>
    <trip id="316" depart="395.00" from="658583340#3" to="458180187#6" type="ev_swarm"/>
    <trip id="317" depart="396.25" from="420494981#0" to="381480256#2" type="ev_swarm"/>
    <trip id="318" depart="397.50" from="1136391284#0" to="-589494596#1" type="ev_swarm"/>
    <trip id="319" depart="398.75" from="942444177#0" to="420598366#0" type="ev_swarm"/>
    <trip id="320" depart="400.00" from="569345508#0" to="308322447#3" type="ev_swarm"/>
    <trip id="321" depart="401.25" from="1022796561" to="46469723#0" type="ev_swarm"/>
    <trip id="322" depart="402.50" from="-571651963#2" to="1088327051" type="ev_swarm"/>
    <trip id="323" depart="403.75" from="458177128#6" to="1442249232#3" type="ev_swarm"/>
    <trip id="324" depart="405.00" from="989793292#0" to="1049920717#0" type="ev_swarm"/>
    <trip id="325" depart="406.25" from="5669669#0" to="46334593#0" type="ev_swarm"/>
    <trip id="326" depart="407.50" from="5671349#0" to="1213301201" type="ev_swarm"/>
    <trip id="327" depart="408.75" from="421852030#0" to="384649121#0" type="ev_swarm"/>
    <trip id="328" depart="410.00" from="989265273#4" to="1442249234#14" type="ev_swarm"/>
    <trip id="329" depart="411.25" from="464516471#16" to="46435657" type="ev_swarm"/>
    <trip id="330" depart="412.50" from="540356239#5" to="954520389#0" type="ev_swarm"/>
    <trip id="331" depart="413.75" from="1198594026#0" to="1201651435#0" type="ev_swarm"/>
    <trip id="332" depart="415.00" from="46492017" to="1097213725-AddedOffRampEdge" type="ev_swarm"/>