<?xml version='1.0' encoding='utf-8'?>
<routes xmlns:xsi="http://www.w3.org/2001/XMLSchema-instance" xsi:noNamespaceSchemaLocation="http://sumo.dlr.de/xsd/routes_file.xsd">
    <vehicle id="0" type="ev_swarm" depart="0.00">
        <route edges="46481747#0 1135620537#0 963613972#0 384649120#2 384649120#5 384649120#8 384649120#11 1021068251#0 1021065071#0 448686048#0 127693103#0 127693103#3 464516471#0 464516471#3 464516471#6 464516471#9 464516471#13 464516471#16 1211049194#0 569345537#0 569345537#5 569345537#8 569345537#11 541350711#0 541350711#3 497258109#0 5670139#0 388696206#0" />
    </vehicle>
    <vehicle id="1" type="ev_swarm" depart="0.35">
        <route edges="1316831699#0 1087744935#0 1316831694#0 1455345748#0 1455345748#3 1455345748#6 1455345749#0 46522007#0 458177131#0 727702633#0 727702632#0 511699176#0 458177130#0 1061622295#0 5670124 1117867038#0 1117867040#1 1198594028#0 1051744778#0 968513231#0 968513229#0 1021047632#0 194926855#0 525729009#0 1025734022#0 525729010#0 1135614655#0 1051734606#0 420901923#0 452319915 1123877140#0 46481738#0 496986803#13 1211608942#0" />
    </vehicle>
    <vehicle id="2" type="ev_swarm" depart="0.70">
        <route edges="525729008#0 125480075#0 1198594026#0 1207834766#0 1198594029#0 194926851#0 846142553#0 420494981#0 1051744070#0 464516471#6 464516471#9 464516471#13 464516471#16 5670867#0 5673497#0 441405436#0 511924978#1 458180188#0 46522003#0" />
    </vehicle>
    <vehicle id="3" type="ev_swarm" depart="1.05">
        <route edges="46522005#0 500717399#0 1135620538#0 464543615#0 1051750427#0 -195743208#6 1027181005#0 1027181006#0" />
    </vehicle>
    <vehicle id="4" type="ev_swarm" depart="1.40">
        <route edges="36806659 1041018377#0 1038780408#0 767683114#0 1157664114#0 600848485#0 1207834768#0 1027181005#0 1027181006#0 1124078896#0 1207834767#0 1124078897#0 1124078898#0 1124078899#0 194926854#0 125479721#0 542257430#0 195743210 1043336433#0 46334593#0 273895449#0 -420904618#3" />
    </vehicle>
    <vehicle id="5" type="ev_swarm" depart="1.75">
        <route edges="1201651435#4 497165756#0 226041011#1 458180195#0 458180193#0 458180193#3 458180193#6 458180189#0 458180187#0 458180187#3 458180187#6 196117039#0 496990647#0 496990647#3 496990647#6 630828556#0 1316295726#0 458177133#0 458177133#4 458177133#8 458177129#0 518451322#0 541351705#0 571651963#0 1088325195#0 420904658#0 5671315#0 420904659#0" />
    </vehicle>
    <vehicle id="6" type="ev_swarm" depart="2.10">
        <route edges="-388696206#3 -1087048475#1 195743336#0 195743336#3 195743336#6 988984235#0 458180197#0 458180191#0 458180191#3 1352944235#0 458180190#0 384178816#0 384178816#3 511699175#0 458180183#0 1061622295#0 5670124 1117867038#0 1117867040#1 1198594028#0 1051744778#0 968513231#0 968513229#0 1021047632#0 194926855#0 525729009#0 1025734022#0 525729010#0 1135614655#0 1051734606#0 420901923#0 420901919#0 420901920#0 420901921#0 194926856#0 350726030#0 1027130505#0 1041018376#0 36806659 1041018377#0 1038780408#0 767683114#0 1157664114#0" />
    </vehicle>
    <vehicle id="7" type="ev_swarm" depart="2.45">
        <route edges="46482604 1156946160#0 1156946161#0 1156946159#0 46482603 46482602#0 46482602#2 846142552#0 846142553#0 420494981#0 1051744070#0 46522000#0 5670225#0 1106482767#0 458180181#0 1106482768#0 420902878#0 1037772010#0 1061623142#0 420496090#0 1135622595#0 1051751160#0 1030123273#0 1030123273#3 1030123270#0 420901682#0 1021051876#0 1030139835#0 420901673#0 420901690#0 420901679#0 453367786#0" />
    </vehicle>
    <vehicle id="8" type="ev_swarm" depart="2.80">
        <route edges="1201651437#4 569345518#0 569345525#0 420906753#0 496992868#0 1023238044 420281339#0 458180196#0 420906752#0 421850830#0 421850829#0 388696207#0 388696207#3 198924587#0 964208970#0 458180199#0 458180199#3" />
    </vehicle>
    <vehicle id="9" type="ev_swarm" depart="3.15">
        <route edges="464515891#0 511699184#0 511699185#0 1316295724#0 511699182#3 -5672991#4 -1272613980#2" />
    </vehicle>
    <vehicle id="10" type="ev_swarm" depart="3.50">
        <route edges="169269031 1313135175#0 5671117#0 46525058#0 1213301201 974611015#0 974611019#0 420904618#0 1320549615#0 167922077#0 525729009#0 1025734022#0 525729010#0 1135614655#0 1051734606#0 420901923#0 420901919#0 733667933#3 1034529064#0 46481747#0 1135620537#0 963613972#0 46522006#0 5673231#0 458166893#0 458166893#6 518451332#0 458166895#0 46469722#0 46334595#0 1090370031" />
    </vehicle>
    <vehicle id="11" type="ev_swarm" depart="3.85">
        <route edges="966105510#0 438384693#0 438384693#3 420356173#0 458177130#0 1061622295#0 5670124 1117867038#0 1117867040#1 1198594028#0 1051744778#0 968513230#0 968513230#3 46482600 1156946156#0 46435596#0 169267539" />
    </vehicle>
    <vehicle id="12" type="ev_swarm" depart="4.20">
        <route edges="1027189509#2 420890028#0 420890024#0 324118558#0 1267505842#0 1136460180#0 1136460181#0 812949648#0 226041030#0 226041031 1025734018#0 1025734019#0 1320234482#0 1025734020#0 814278019#0 1136391284#0 420907908#0 968513231#0 968513229#0 1021047632#0 194926855#0 525729009#0 1025734022#0 525729010#0 1135614655#0 1051734606#0 420901923#0 420901919#0 733667933#3 1034529064#0" />
    </vehicle>
    <vehicle id="13" type="ev_swarm" depart="4.55">
        <route edges="587061869#0 554083353#0 554083353#4 1462663361#0 729972918#0 1049879868#0 989791207#0 5673626#0 226041005#4 226041003#0 226041003#4 1414774494 1313071249#0 46201643" />
    </vehicle>
    <vehicle id="14" type="ev_swarm" depart="4.90">
        <route edges="5672149#3 -511699179#2 1106482769#0 511699178#0 5673515#0 511699184#0" />
    </vehicle>
    <vehicle id="15" type="ev_swarm" depart="5.25">
        <route edges="441405436#0 569345515#4 458180186#5 1051743127#0 458180184#0 384178816#0 384178816#3 511699175#0 458180183#0 1061622295#0 5670124 1117867038#0 1117867040#1 1198594028#0 1051744778#0 968513231#0 968513229#0 1021047632#0 194926855#0 525729009#0 46334593#0 420904617#0 1361048663 273895448#0 420904615#0 46482540 46435657 46482539#0 974611016#0" />
    </vehicle>
    <vehicle id="16" type="ev_swarm" depart="5.60">
        <route edges="226041005#0 226041005#4 420901690#0 226041000#0 989791208#0 226040999#0 1271749957#0 458177133#4 458177133#8 458177129#0 518451322#0 989793292#0 989793294#0 1201643836#0 1201643838#0 1201643837#0 458166894#0" />
    </vehicle>
    <vehicle id="17" type="ev_swarm" depart="5.95">
        <route edges="569345535#0 1352944235#0 458180190#0 384178816#0 384178816#3 511699175#0 458180183#0 1061622295#0 5670124 464516471#3 464516471#6 464516471#9 464516471#13" />
    </vehicle>
    <vehicle id="18" type="ev_swarm" depart="6.30">
        <route edges="640327290 658499799 936537011 380147339#0 46469720#0 458177128#0 458177128#6 195743182#0 195743182#3 195743182#6 511699182#0 511699182#3 511699181#0 966105510#0 438384693#0 438384693#3 420356173#0 458177130#0 1061622295#0 5670124 464516471#3 464516471#6 464516471#9 464516471#13 464516471#16 5670867#0 458180190#0" />
    </vehicle>
    <vehicle id="19" type="ev_swarm" depart="6.65">
        <route edges="458180191#0 458180191#3 1352944235#0 458180190#0 384178816#0 384178816#3 511699175#0 458180183#0 1061622295#0 5670124 1117867038#0 682360554#0 397795464#0 569345544#0 167922070#0 195743344#0 569345545#0 1049920716#0 1049920718#0 1376929274#0 1135620538#0 464543615#0 1051750427#0 384649121#0 -5670600#1" />
    </vehicle>
    <vehicle id="20" type="ev_swarm" depart="7.00">
        <route edges="1207834768#0 1027181005#0 1027181006#0 1124078896#0 1207834767#0 46481747#0 1135620537#0 963613972#0 384649120#2 384649120#5 384649120#8 384649120#11 1021068251#0 1021065071#0 448686048#0 127693103#0 127693103#3 464516471#0 464516471#3 46522000#0 5670225#0 458180182#0 420906743#0 420356172#0 439768850#0 1376704198#0" />
    </vehicle>
    <vehicle id="21" type="ev_swarm" depart="7.35">
        <route edges="1025734019#0 1320234482#0 1025734020#0 814278019#0 1136391284#0 420907908#0 968513231#0 968513229#0 1021047632#0 194926855#0 525729009#0 1025734022#0 525729010#0 1135614655#0 1051734606#0 420901923#0 420901919#0 420901920#0 420901921#0 194926856#0 350726030#0 460069727#0 1238990622#0" />
    </vehicle>
    <vehicle id="22" type="ev_swarm" depart="7.70">
        <route edges="1037772009#0 5673380#0 420904658#0 542096279#0 1201643837#0 458166894#0 195743182#0 195743182#3 195743182#6 511699182#0 511699182#3 511699181#0 966105510#0 438384693#0 438384693#3 420356173#0 458177130#0 1061622295#0 5670124 464516471#3 464516471#6 464516471#9 464516471#13 542258337#0 1051745205#0 1320234484#0 1320234484#3 1320234484#8" />
    </vehicle>
    <vehicle id="23" type="ev_swarm" depart="8.05">
        <route edges="46469732#0 518451327#0 518451327#4 989793292#0 989793294#0 1201643836#0 1201643838#0 46469731#0 496983399#0 496983398#0 1051750425#0 1051750426#0 5673561#0 1051750428#0 542255948#0 420901921#0 194926856#0 446193620#0 1022796561 36806896#0 207542284" />
    </vehicle>
    <vehicle id="24" type="ev_swarm" depart="8.40">
        <route edges="226040992#1 1038784416#0 5669669#0 5669669#4 968394455#0 968394455#3 968394456#0 68668519#0 460606347#0 439933932#0 496983397#0 587038081#0 384649120#2 384649120#5 384649120#8 384649120#11 1021068251#0 1021065071#0 448686048#0 127693103#0 127693103#3 464516471#0 464516471#3 464516471#6 464516471#9 464516471#13 464516471#16 1211049194#0 569345537#0 569345537#5 569345537#8 46521993#0 5672954#0 541331485#0 226041011#1 458180195#0 1201651432#0 1201651434#0" />
    </vehicle>
    <vehicle id="25" type="ev_swarm" depart="8.75">
        <route edges="1316295724#0 1316295724#3 1316295725#0 1316295725#3 1316295725#4 5670106#0 1316831693#0 36271338#0 36271338#5 420901673#0 226041003#0 226041003#4 1414774494 1313071249#0 46518732 884400281" />
    </vehicle>
    <vehicle id="26" type="ev_swarm" depart="9.10">
        <route edges="46482602#2 420907908#0 968513230#0 968513230#3 46482600 1156946156#0 46435596#0" />
    </vehicle>
    <vehicle id="27" type="ev_swarm" depart="9.45">
        <route edges="1123877140#0 46481738#0 496986803#13 36806680#3 36806683 1051734606#0 420901923#0 420901919#0 733667933#3 1034529064#0 46481747#0 1135620537#0 963613972#0 46522006#0 5673231#0 458166894#0 195743182#0 195743182#3 195743182#6 511699182#0 511699182#3 438384692#0 511699183#0" />
    </vehicle>
    <vehicle id="28" type="ev_swarm" depart="9.80">
        <route edges="1106482765#3 511699175#0 458180183#0 1061622295#0 5670124 464516471#3 464516471#6 464516471#9 464516471#13 464516471#16 1211049194#0 569345537#0 569345537#5 569345537#8 46521993#0 5672954#0 458180196#0 226041012#3" />
    </vehicle>
    <vehicle id="29" type="ev_swarm" depart="10.15">
        <route edges="989265272#0 1156946161#0 1156946158#0 1156946157#0 46525058#0 1213301201 974611015#0 974611018#0 974611016#0 5671425#0 5671425#2 46482538#0" />
    </vehicle>
    <vehicle id="30" type="ev_swarm" depart="10.50">
        <route edges="458166893#0 68674961#4 458177128#6 195743182#0 195743182#3 195743182#6 511699182#0 511699182#3 511699181#0 966105510#0 438384693#0 438384693#3 420356173#0 420906755#0 458180182#0 420906743#0 420356172#0 496993762#0 458180185#0 441405435#0 1023236297#0 569345531#0 569345535#0 46538335#0" />
    </vehicle>
    <vehicle id="31" type="ev_swarm" depart="10.85">
        <route edges="573228989#0 -388696206#3 -1087048475#1 195743336#0 195743336#3 195743336#6 988984235#0 458180197#0 458180191#0 458180191#3 1352944235#0 458180190#0 384178816#0 384178816#3 511699175#0 458180183#0 1061622295#0 5670124 1117867038#0 682360554#0 397795464#0 569345544#0 167922070#0 195743344#0 569345545#0 1049920716#0 1049920718#0 1376929274#0 1135620538#0 464543615#0 1051750427#0 5670803#0" />
    </vehicle>
    <vehicle id="32" type="ev_swarm" depart="11.20">
        <route edges="1211608942#0 1041012063#0 895394557#0 273895450#0 525729010#0 1135614655#0 1051734606#0 420901923#0 420901919#0 733667933#3 1034529064#0 46481747#0 1135620537#0 963613972#0 46522006#0 458166892#0 458166892#3 -420904659#1 -5671315#1 -420904658#3" />
    </vehicle>
    <vehicle id="33" type="ev_swarm" depart="11.55">
        <route edges="1455345750#3 988977545#10 458180187#6 196117039#0 458177131#0 727702633#0 727702632#0 511699176#0 458177130#0 438397345#0 464515891#0 511699184#0 511699185#0 1316295724#0 1316295724#3 1316295725#0 1316295725#3" />
    </vehicle>
    <vehicle id="34" type="ev_swarm" depart="11.90">
        <route edges="1198594029#0 194926851#0 846142553#0 420494981#0 1051744070#0 46522000#0 5670225#0 1106482767#0 458180181#0 1106482768#0 420902878#0 1037772010#0 1061623142#0 196117039#0 496990647#0 496990647#3 496990647#6 630828556#0 1316295726#0 458177133#0 458177133#4 858965316#0 1049879868#0 936539648#0" />
    </vehicle>
    <vehicle id="35" type="ev_swarm" depart="12.25">
        <route edges="682360554#0 397795464#0 569345544#0 167922070#0 195743344#0 569345545#0 569345546#0 542258061#0 1021068251#0 1021065071#0 448686048#0 127693103#0 127693103#3 464516471#0 464516471#3 46522000#0 5670225#0 1106482767#0 458180181#0 1106482768#0 420902878#0 1037772010#0 1061623142#0 420496090#0 1135622595#0 1455345750#3 1455345750#6 1455345750#9 1455345751#0" />
    </vehicle>
    <vehicle id="36" type="ev_swarm" depart="12.60">
        <route edges="46492007 36806677 954552256#1 46492639#0 1088327050#4 273019812 273019814#2" />
    </vehicle>
    <vehicle id="37" type="ev_swarm" depart="12.95">
        <route edges="771759767 771759765 226041002#0 226041002#1 1046745000#0 458177133#0 1150636496#0 1150636497#0 1150636499#0 1150636500#0 226041001#0 1150636501#0 438385431#6 438385431#9 420496529#0 458166892#0 458166892#3 195743343#0 195743343#3 588168464#0" />
    </vehicle>
    <vehicle id="38" type="ev_swarm" depart="13.30">
        <route edges="1313135176#0 1020835925 169269031 1313135175#0 5671117#0 46525058#0 1213301201 974611015#0 974611019#0 420904618#0 1320549615#0 167922077#0 525729009#0 1025734022#0 525729010#0 1135614655#0 1051734606#0 420901923#0 420901919#0 733667933#3 1034529064#0 46481747#0 1135620537#0 963613972#0 46522006#0 5673231#0 458166893#0 458166893#6 518451332#0 458166895#0 46469722#0 1090370030 889906410 873170354 1287670368 1287670367" />
    </vehicle>
    <vehicle id="39" type="ev_swarm" depart="13.65">
        <route edges="458180193#0 458180193#3 458180193#6 458180189#0 458180186#0 458180186#5 1051743127#0 458180184#0 384178816#0 384178816#3 511699175#0 458180183#0 1061622295#0 5670124 1117867038#0 1117867040#1 1198594028#0 1051744778#0 968513231#0 968513229#0 1021047632#0 194926855#0 525729009#0 1025734022#0 525729010#0 1135614655#0 1051734606#0 420901923#0 420901919#0 733667933#3" />
    </vehicle>
    <vehicle id="40" type="ev_swarm" depart="14.00">
        <route edges="273019810#3 496986803#0 496986803#3 496986803#7 496986803#13 36806680#3 36806683 5670197#0 1051734607#0 1124078899#0 194926854#0 125479721#0 542257430#0 195743345#0 420907902#0 125480075#0 1198594026#0 1207834766#0" />
    </vehicle>
    <vehicle id="41" type="ev_swarm" depart="14.35">
        <route edges="991939499#3 942444177#0 46469732#0 518451327#0 518451327#4 989793292#0 989793294#0 1201643836#0 1201643838#0 1201643837#0 458166894#0 195743182#0 195743182#3 195743182#6 511699182#0 511699182#3 511699181#0 966105510#0 438384693#0 438384693#3 420356173#0 420906755#0 458180182#0 420906743#0 420356172#0 496993762#0 458180185#0 441405435#0 1023236297#0 420906753#0" />
    </vehicle>
    <vehicle id="42" type="ev_swarm" depart="14.70">
        <route edges="1027189507#0 1049888072#0 420907903#0 420907906#0 1376951511#0 1136460176#0 420908138#0 5670867#0 458180190#0 384178816#0 384178816#3 511699175#0 458180183#0 438397345#0 464515891#0 511699184#0 511699185#0 438385431#0 438385431#3 438385431#6 438385431#9 420496529#0 458166892#0 458166892#3 -420904659#1 -5671315#1" />
    </vehicle>
    <vehicle id="43" type="ev_swarm" depart="15.05">
        <route edges="1041012063#0 895394557#0 273895450#0 525729010#0 1135614655#0 1051734606#0 420901923#0 420901919#0 733667933#3 1034529064#0 46481747#0 1135620537#0 963613972#0 46522006#0 5673231#0 458166894#0 195743182#0 858965315#0 1049879867#0 858965316#0 1049879868#0 936539648#0 420901683#0 381477008#0 658488333#0 46469721" />
    </vehicle>
    <vehicle id="44" type="ev_swarm" depart="15.40">
        <route edges="5671425#0 5671425#2 46482538#0 895394557#0 273895450#0 525729010#0 1135614655#0 1051734606#0" />
    </vehicle>
    <vehicle id="45" type="ev_swarm" depart="15.75">
        <route edges="1018454468#0 630828583#0 127693383#0 127693383#3 127693383#6 1027181004#0 1027181003#0 767683113#0 1038939784#0 226041020#0" />
    </vehicle>
    <vehicle id="46" type="ev_swarm" depart="16.10">
        <route edges="989793294#0 1201643836#0 1201643838#0 46469731#0 458166892#3 195743343#0 195743343#3 588168464#0 46490538#0 46490538#5 68668519#0 460606347#0 439933932#0" />
    </vehicle>
    <vehicle id="47" type="ev_swarm" depart="16.45">
        <route edges="974611015#0 974611019#0 420904618#0 1320549615#0 167922077#0 525729009#0 1025734022#0 525729010#0 1135614655#0 1051734606#0 420901923#0 420901919#0 733667933#3 1034529064#0 46481747#0 1135620537#0 963613972#0 46522006#0 5673231#0 458166893#0 458166893#6 518451332#0 458166895#0 46469722#0 46334595#0 5672478 658498537" />
    </vehicle>
    <vehicle id="48" type="ev_swarm" depart="16.80">
        <route edges="-139919706#1 1088327048#0 1202082384#0 733667933#0 733667933#3 1034529064#0 1124078897#0 1124078898#0 1124078899#0 194926854#0 505317783#0" />
    </vehicle>
    <vehicle id="49" type="ev_swarm" depart="17.15">
        <route edges="458180191#3 1352944235#0 458180190#0 384178816#0 384178816#3 511699175#0 458180183#0 438397345#0 464515891#0 511699184#0 511699185#0 438385431#0 438385431#3 438385431#6 438385431#9 420496529#0 458166892#0 458166892#3 195743343#0 195743343#3 588168464#0 464515614#0 5671317#0 447001272#3" />
    </vehicle>
    <vehicle id="50" type="ev_swarm" depart="17.50">
        <route edges="1316295724#0 511699182#3 511699181#0 966105510#0 438384693#0 438384693#3 420356173#0 458177130#0 1061622295#0 5670124 1117867038#0 1117867040#1 1198594028#0 1051744778#0 968513231#0 968513229#0 1021047632#0 194926855#0 525729009#0 46334593#0 420904617#0 1361048663 273895448#0 420904615#0 46482540 46435657 46482539#0" />
    </vehicle>
    <vehicle id="51" type="ev_swarm" depart="17.85">
        <route edges="1041018377#0 1038780408#0 767683114#0 1157664114#0 600848485#0 1207834768#0 1027181005#0 1027181006#0 1124078896#0 1207834767#0 46481747#0 1135620537#0 963613972#0 46522006#0 5673231#0 458166894#0 195743182#0 195743182#3 195743182#6 226041004#0 771759767 771759765 226041002#0 226041002#1 1046745000#0 1316831699#0 226041005#0 226041005#4 226041003#0 226041003#4 1414774494 1313071249#0 46518732 379843699" />
    </vehicle>
    <vehicle id="52" type="ev_swarm" depart="18.20">
        <route edges="384826723#0 1021051876#0 1030139835#0 420901673#0 420901690#0 226041000#0 989791208#0 226040999#0 1271749957#0 1150636496#0 1150636497#0 1150636499#0 1150636500#0 226041001#0 1150636501#0 438385431#6 438385431#9 420904660#0 1036712190 46522005#0 700951339#0 963613972#0" />
    </vehicle>
    <vehicle id="53" type="ev_swarm" depart="18.55">
        <route edges="682360554#0 397795464#0 569345544#0 167922070#0 195743344#0 569345545#0 1049920716#0 1049920718#0 1376929274#0 1135620538#0 1135620537#0 963613972#0 46522006#0 458166892#0 458166892#3 -420904659#1 -5671315#1 -420904658#3 -1088325195#2 -571651963#2 458166896#0 458166896#5 1316295713#6" />
    </vehicle>
    <vehicle id="54" type="ev_swarm" depart="18.90">
        <route edges="420902878#0 1037772010#0 1061623142#0 196117039#0 458177131#0 727702633#0 727702632#0 511699176#0 458177130#0 1061622295#0 5670124 1117867038#0 1117867040#1 1198594028#0 1051744778#0 968513230#0 460585328#9 460585328#12 1136391283#3" />
    </vehicle>
    <vehicle id="55" type="ev_swarm" depart="19.25">
        <route edges="771759765 386972970#0 872052106 988956476 1037772011 575746067#0 46521465 1049841322#0 1049841322#4 1376704198#0 458180186#5 458180185#0 441405435#0 1023236297#0 420906753#0 496992868#0 1023238044 420281339#0 458180196#0 420906752#0 421850830#0 421850829#0 388696207#0 5672951#0 671208357#0" />
    </vehicle>
    <vehicle id="56" type="ev_swarm" depart="19.60">
        <route edges="1388287829#0 569345508#0 569345515#0 569345515#4 458180186#5 1051743127#0 458180184#0 384178816#0 384178816#3 511699175#0 458180183#0 1061622295#0 5670124 1117867038#0 1117867040#1 1198594028#0 1051744778#0 968513231#0 968513229#0 1021047632#0 194926855#0 525729009#0 1025734022#0 525729010#0 1135614655#0 1051734606#0 420901923#0 420901919#0 733667933#3 1034529064#0 46481747#0" />
    </vehicle>
    <vehicle id="57" type="ev_swarm" depart="19.95">
        <route edges="46334595#0 1090370031 381480256#0 954929768#0 420872177#0 368938762#0 955205137#0 368938761#0 5671349#0 1090370026#0" />
    </vehicle>
    <vehicle id="58" type="ev_swarm" depart="20.30">
        <route edges="5669356 46492012 1053371047 36807165 273895450#0 226041023 1031879418#0 505317789 542258060#0 569345546#0 542258061#0 1021068251#0 1021065071#0 448686048#0" />
    </vehicle>
    <vehicle id="59" type="ev_swarm" depart="20.65">
        <route edges="5670873#0 46583189#0 5669664#0 422298615#0 195743336#0 195743336#3 195743336#6 988984235#0 458180197#0 458180191#0 458180191#3 1352944235#0 5673497#0 441405436#0" />
    </vehicle>
    <vehicle id="60" type="ev_swarm" depart="21.00">
        <route edges="-1087048475#1 195743336#0 195743336#3 195743336#6 988984235#0 5672954#0 541331485#0 226041011#1 458180195#0 458180193#0 458180193#3 458180193#6 458180189#0 458180187#0 458180187#3 458180187#6 196117039#0 496990647#0 496990647#3 496990647#6 630828556#0 1316295726#0 458177133#0 458177133#4 458177133#8 458177129#0 458166895#0 1462663361#0" />
    </vehicle>
    <vehicle id="61" type="ev_swarm" depart="21.35">
        <route edges="-36271338#4 1316831694#0 1455345748#0 1455345748#3 1455345748#6 1455345749#0 46522007#0 458177131#0 727702633#0 727702632#0 511699176#0 458177130#0 1061622295#0 5670124 1117867038#0 1117867040#1 1198594028#0 1051744778#0 968513230#0 460585328#9 46482602#2 846142552#0" />
    </vehicle>
    <vehicle id="62" type="ev_swarm" depart="21.70">
        <route edges="68668519#0 460606347#0 439933932#0 496983397#0 587038081#0 384649120#2 384649120#5 384649120#8 384649120#11 1021068251#0 1021065071#0 448686048#0 127693103#0 127693103#3 464516471#0 464516471#3 464516471#6 464516471#9 464516471#13 464516471#16 1211049194#0 569345538#0 569345539#0" />
    </vehicle>
    <vehicle id="63" type="ev_swarm" depart="22.05">
        <route edges="1442249234#14 195743336#3 195743336#6 988984235#0 5672954#0 541331485#0 226041011#1 458180195#0 458180193#0 458180193#3 458180193#6 458180189#0 458180187#0 458180187#3 458180187#6 420496090#0 1135622595#0 1051751160#0 1030123273#0 1030123273#3 1030123270#0 420901682#0 -384826723#2 -988980354#1" />
    </vehicle>
    <vehicle id="64" type="ev_swarm" depart="22.40">
        <route edges="68325075-AddedOnRampEdge 68325075 1238990622#0 5670275#0 420901925 36806658#0 1041018376#0 36806659 1041018377#0 1038780408#0 767683114#0 1157664114#0 600848485#0 1207834768#0 1027181005#0 1027181006#0 1124078896#0 1207834767#0 1124078897#0 1124078898#0 1124078899#0 194926854#0 505317783#0 1040888764#0 226041021#0 954520388#0" />
    </vehicle>
    <vehicle id="65" type="ev_swarm" depart="22.75">
        <route edges="1027130509#0 1027130510#0 1312939984#3 127693383#0 127693383#3 127693383#6 1027181004#0 1027181003#0 1038780408#0 767683114#0 1157664114#0 600848485#0 1207834768#0 1027181005#0 1027181006#0 1124078896#0 1207834767#0 46481747#0 1135620537#0 963613972#0 384649120#2 384649120#5 384649120#8 384649120#11 1021068251#0 1021065071#0 448686048#0 127693103#0 127693103#3 464516471#0 464516471#3 464516471#6 464516471#9 464516471#13 464516471#16 1211049194#0 569345537#0 569345537#5 420905130#0 46538371#0 812949647#0 420890028#0" />
    </vehicle>
    <vehicle id="67" type="ev_swarm" depart="23.45">
        <route edges="5669669#4 968394455#0 968394455#3 968394456#0 68668519#0 460606347#0 439933932#0 496983397#0 1051750425#0 1051750426#0 5673561#0 1051750428#0" />
    </vehicle>
    <vehicle id="68" type="ev_swarm" depart="23.80">
        <route edges="420509471#0 195743208#0 384649121#0 -5670600#1 -1088325196#1 -420904659#1" />
    </vehicle>
    <vehicle id="69" type="ev_swarm" depart="24.15">
        <route edges="1313135176#0 1020835925 169269031 1313135175#0 5671117#0 46525058#0 1213301201 974611015#0 974611019#0 420904618#0 1320549615#0 167922077#0 525729009#0 1025734022#0 525729010#0 1135614655#0 1051734606#0 420901923#0 420901919#0 420901920#0 1088327050#0 1088327050#4 273019812 496986803#3 5672142#6 1202082365#0 68325075-AddedOnRampEdge 68325075" />
    </vehicle>
    <vehicle id="71" type="ev_swarm" depart="24.85">
        <route edges="447001270#0 1037772009#0 5673380#0 420904658#0 542096279#0 1201643837#0 458166894#0 195743182#0 195743182#3 195743182#6 511699182#0 511699182#3 511699181#0 966105510#0 5673515#0 511699184#0" />
    </vehicle>
    <vehicle id="72" type="ev_swarm" depart="25.20">
        <route edges="1156946160#0 1156946161#0 1156946159#0 46482603 46482602#0 46482602#2 846142552#0 846142553#0 420494981#0 1051744070#0 46522000#0 5670225#0 1106482767#0 458180181#0 1106482768#0 420902878#0 1037772010#0 1061623142#0 420496090#0 1135622595#0 1455345750#3" />
    </vehicle>
    <vehicle id="73" type="ev_swarm" depart="25.55">
        <route edges="989793293#0 1201643836#0 1201643838#0 1201643837#0 458166894#0 195743182#0 195743182#3 195743182#6 511699182#0 511699182#3 511699181#0 966105510#0 438384693#0 438384693#3 420356173#0 458177130#0 1061622295#0 5670124 1117867038#0 1117867040#1 1198594028#0 1051744778#0 968513230#0 460585328#9 460585328#12 1136391283#3 46482604" />
    </vehicle>
    <vehicle id="74" type="ev_swarm" depart="25.90">
        <route edges="368938761#0 1313071250#0 36185650#0 1414774493#0 654561413 380098431 1359353584 -747908051#1 -747908052#2 -384826723#2 -988980354#1 -420356169#3 1455345748#0 1455345748#3 1455345748#6 1455345749#0 1455345750#0 1455345750#3 1455345750#6 1455345750#9 1455345751#0 46522002#0 458180186#0 458180186#5 458180185#0 441405435#0 1023236297#0 420906753#0 496992868#0 1023238044 420281339#0 458180196#0 420906752#0 421850830#0" />
    </vehicle>
    <vehicle id="75" type="ev_swarm" depart="26.25">
        <route edges="1049920717#0 542257009#0 384649120#8 384649120#11 1021068251#0 1021065071#0 448686048#0 127693103#0 127693103#3 464516471#0 1117867038#0 1117867040#1 1198594028#0 1051744778#0 968513231#0 968513229#0 1021047632#0 194926855#0 525729009#0 46334593#0 273895449#0 -420904618#3 -68325079#1 -420904620 1212776159#0" />
    </vehicle>
    <vehicle id="76" type="ev_swarm" depart="26.60">
        <route edges="-167922076#2 35027229#0 803047267#0 542258061#0 1021068251#0 1021065071#0 448686048#0 127693103#0 127693103#3 464516471#0 464516471#3 464516471#6 464516471#9 464516471#13 464516471#16 1211049194#0 569345537#0 569345537#5 569345537#8 569345537#11 541350711#0 541350711#3 497258109#0 5670139#0 388696206#0 -388696206#3 388696207#0 388696207#3 198924587#0 964208970#0 458180199#0" />
    </vehicle>
    <vehicle id="77" type="ev_swarm" depart="26.95">
        <route edges="1211608943#0 954520389#0 945460473#0 420904618#0 1320549615#0 167922077#0 525729009#0 1025734022#0 525729010#0 1135614655#0 1051734606#0 420901923#0 420901919#0 733667933#3 1034529064#0 46481747#0" />
    </vehicle>
    <vehicle id="78" type="ev_swarm" depart="27.30">
        <route edges="968394453#0 968394455#0 968394455#3 968394456#0 68668519#0 460606347#0 439933932#0 496983397#0 587038081#0 46522006#0 5673231#0 458166894#0 195743182#0 195743182#3 195743182#6 511699182#0 1316295724#3 1316295725#0 1316295725#3 1316295725#4 5670106#0 1316831693#0 36271338#0 36271338#5 46469723#0 46469725" />
    </vehicle>
    <vehicle id="79" type="ev_swarm" depart="27.65">
        <route edges="1211049194#0 569345538#0 569345539#0 1059314985#0 226041030#0 226041031 1025734018#0 1025734019#0 1320234482#0 1025734020#0 814278019#0 1136391284#0 420907908#0 968513231#0 968513229#0 1021047632#0 194926855#0 525729009#0 1025734022#0 525729010#0 1135614655#0 1051734606#0 420901923#0 420901919#0 420901920#0 420901921#0 194926856#0 350726030#0 1027130505#0 1041018376#0 36806659 1041018377#0 1038780408#0 767683107#0" />
    </vehicle>
    <vehicle id="80" type="ev_swarm" depart="28.00">
        <route edges="630828583#0 127693383#0 127693383#3 1088321125#0 1022184083#0" />
    </vehicle>
    <vehicle id="84" type="ev_swarm" depart="29.40">
        <route edges="458166894#0 195743182#0 195743182#3 195743182#6 511699182#0 511699182#3 511699181#0 966105510#0 438384693#0 5672149#3 46520921#0 46520921#3 1106482768#0 420902878#0 1037772010#0 1061623142#0 420496090#0 1135622595#0 1051751160#0 1030123273#0 5671192#3" />
    </vehicle>
    <vehicle id="85" type="ev_swarm" depart="29.75">
        <route edges="5672149#3 46520921#0 46520921#3 1106482768#0 420902878#0 1037772010#0 1061623142#0 196117039#0 496990647#0 496990647#3 496990647#6 630828556#0 1316295726#0 458177133#0 1150636496#0 1150636497#0 1150636499#0 1150636500#0" />
    </vehicle>
    <vehicle id="88" type="ev_swarm" depart="30.80">