<?xml version="1.0" encoding="UTF-8"?>

<!-- generated on 2026-05-21 17:09:39.622116 by randomTrips.py v1_19_0+0000-baa66a0f364
<configuration>
    <net-file value="C:\Users\Admin\thesis\network\midtown.net.xml"/>
    <output-trip-file value="C:\Users\Admin\thesis\demand\dense_trips.xml"/>
    <trip-attributes value="type=&quot;ev_swarm&quot;"/>
    <min-distance value="200.0"/>
    <end value="3400.0"/>
    <period value="0.35"/>
</configuration>
-->

<routes xmlns:xsi="http://www.w3.org/2001/XMLSchema-instance" xsi:noNamespaceSchemaLocation="http://sumo.dlr.de/xsd/routes_file.xsd">
    <trip id="0" depart="0.00" from="46481747#0" to="-388696206#3" type="ev_swarm"/>
    <trip id="1" depart="0.35" from="1316831699#0" to="1211608942#0" type="ev_swarm"/>
    <trip id="2" depart="0.70" from="525729008#0" to="46522003#0" type="ev_swarm"/>
    <trip id="3" depart="1.05" from="700951339#0" to="1027181006#0" type="ev_swarm"/>
    <trip id="4" depart="1.40" from="36806659" to="-420904618#3" type="ev_swarm"/>
    <trip id="5" depart="1.75" from="1201651435#4" to="420904659#0" type="ev_swarm"/>
    <trip id="6" depart="2.10" from="-388696206#3" to="1157664114#0" type="ev_swarm"/>
    <trip id="7" depart="2.45" from="46482604" to="453367786#0" type="ev_swarm"/>
    <trip id="8" depart="2.80" from="1201651437#4" to="458180199#3" type="ev_swarm"/>
    <trip id="9" depart="3.15" from="5672464#0" to="-1272613980#2" type="ev_swarm"/>
    <trip id="10" depart="3.50" from="169269031" to="1090370031" type="ev_swarm"/>
    <trip id="11" depart="3.85" from="966105510#0" to="169267539" type="ev_swarm"/>
    <trip id="12" depart="4.20" from="1027189509#2" to="1034529064#0" type="ev_swarm"/>
    <trip id="13" depart="4.55" from="587061869#0" to="46201643" type="ev_swarm"/>
    <trip id="14" depart="4.90" from="5672149#3" to="511699184#0" type="ev_swarm"/>
    <trip id="15" depart="5.25" from="441405436#0" to="974611016#0" type="ev_swarm"/>
    <trip id="16" depart="5.60" from="226041005#0" to="458166894#0" type="ev_swarm"/>
    <trip id="17" depart="5.95" from="569345535#0" to="464516471#13" type="ev_swarm"/>
    <trip id="18" depart="6.30" from="640327290" to="458180190#0" type="ev_swarm"/>
    <trip id="19" depart="6.65" from="496992867#0" to="-5670600#1" type="ev_swarm"/>
    <trip id="20" depart="7.00" from="1207834768#0" to="1376704198#0" type="ev_swarm"/>
    <trip id="21" depart="7.35" from="1025734019#0" to="1238990622#0" type="ev_swarm"/>
    <trip id="22" depart="7.70" from="1037772009#0" to="1320234484#8" type="ev_swarm"/>
    <trip id="23" depart="8.05" from="46469732#0" to="207542284" type="ev_swarm"/>
    <trip id="24" depart="8.40" from="226040992#1" to="1201651434#0" type="ev_swarm"/>
    <trip id="25" depart="8.75" from="1316295724#0" to="884400281" type="ev_swarm"/>
    <trip id="26" depart="9.10" from="46482602#2" to="46435596#0" type="ev_swarm"/>
    <trip id="27" depart="9.45" from="1123877140#0" to="511699183#0" type="ev_swarm"/>
    <trip id="28" depart="9.80" from="1106482765#3" to="226041012#3" type="ev_swarm"/>
    <trip id="29" depart="10.15" from="989265272#0" to="46482538#0" type="ev_swarm"/>
    <trip id="30" depart="10.50" from="458166893#0" to="46538335#0" type="ev_swarm"/>
    <trip id="31" depart="10.85" from="573228989#0" to="5670803#0" type="ev_swarm"/>
    <trip id="32" depart="11.20" from="1211608942#0" to="-420904658#3" type="ev_swarm"/>
    <trip id="33" depart="11.55" from="1455345750#3" to="1316295725#3" type="ev_swarm"/>
    <trip id="34" depart="11.90" from="1198594029#0" to="936539648#0" type="ev_swarm"/>
    <trip id="35" depart="12.25" from="682360554#0" to="1455345751#0" type="ev_swarm"/>
    <trip id="36" depart="12.60" from="46492007" to="273019814#2" type="ev_swarm"/>
    <trip id="37" depart="12.95" from="771759767" to="415849235#0" type="ev_swarm"/>
    <trip id="38" depart="13.30" from="1313135176#0" to="1287670367" type="ev_swarm"/>
    <trip id="39" depart="13.65" from="458180193#0" to="733667933#3" type="ev_swarm"/>
    <trip id="40" depart="14.00" from="273019810#3" to="1207834766#0" type="ev_swarm"/>
    <trip id="41" depart="14.35" from="991939499#3" to="420906753#0" type="ev_swarm"/>
    <trip id="42" depart="14.70" from="1027189507#0" to="-5671315#1" type="ev_swarm"/>
    <trip id="43" depart="15.05" from="1041012063#0" to="46469721" type="ev_swarm"/>
    <trip id="44" depart="15.40" from="5671425#0" to="36806683" type="ev_swarm"/>
    <trip id="45" depart="15.75" from="1018454468#0" to="226041020#0" type="ev_swarm"/>
    <trip id="46" depart="16.10" from="989793294#0" to="439933932#0" type="ev_swarm"/>
    <trip id="47" depart="16.45" from="974611015#0" to="658498537" type="ev_swarm"/>
    <trip id="48" depart="16.80" from="-139919706#1" to="505317783#0" type="ev_swarm"/>
    <trip id="49" depart="17.15" from="46538335#0" to="447001272#3" type="ev_swarm"/>
    <trip id="50" depart="17.50" from="1316295724#0" to="46482539#0" type="ev_swarm"/>
    <trip id="51" depart="17.85" from="1041018377#0" to="379843699" type="ev_swarm"/>
    <trip id="52" depart="18.20" from="384826723#0" to="963613972#0" type="ev_swarm"/>
    <trip id="53" depart="18.55" from="682360554#0" to="1316295713#6" type="ev_swarm"/>
    <trip id="54" depart="18.90" from="420902878#0" to="1136391283#3" type="ev_swarm"/>
    <trip id="55" depart="19.25" from="771759765" to="671208357#0" type="ev_swarm"/>
    <trip id="56" depart="19.60" from="1388287829#0" to="46481747#0" type="ev_swarm"/>
    <trip id="57" depart="19.95" from="46334595#0" to="1090370026#0" type="ev_swarm"/>
    <trip id="58" depart="20.30" from="5669356" to="448686048#0" type="ev_swarm"/>
    <trip id="59" depart="20.65" from="5670873#0" to="441405436#0" type="ev_swarm"/>
    <trip id="60" depart="21.00" from="-1087048475#1" to="1462663361#0" type="ev_swarm"/>
    <trip id="61" depart="21.35" from="-36271338#4" to="846142552#0" type="ev_swarm"/>
    <trip id="62" depart="21.70" from="68668519#0" to="569345539#0" type="ev_swarm"/>
    <trip id="63" depart="22.05" from="1442249234#14" to="-988980354#1" type="ev_swarm"/>
    <trip id="64" depart="22.40" from="68325075-AddedOnRampEdge" to="954520388#0" type="ev_swarm"/>
    <trip id="65" depart="22.75" from="1027130509#0" to="420890028#0" type="ev_swarm"/>
    <trip id="66" depart="23.10" from="1021068251#0" to="5669218" type="ev_swarm"/>
    <trip id="67" depart="23.45" from="5669669#4" to="1051750428#0" type="ev_swarm"/>
    <trip id="68" depart="23.80" from="420509471#0" to="458166892#3" type="ev_swarm"/>
    <trip id="69" depart="24.15" from="1313135176#0" to="68325075" type="ev_swarm"/>
    <trip id="70" depart="24.50" from="36806661" to="1201651435#4" type="ev_swarm"/>
    <trip id="71" depart="24.85" from="447001270#0" to="511699184#0" type="ev_swarm"/>
    <trip id="72" depart="25.20" from="1156946160#0" to="1455345750#3" type="ev_swarm"/>
    <trip id="73" depart="25.55" from="989793293#0" to="46482604" type="ev_swarm"/>
    <trip id="74" depart="25.90" from="368938761#0" to="421850830#0" type="ev_swarm"/>
    <trip id="75" depart="26.25" from="1049920717#0" to="1212776159#0" type="ev_swarm"/>
    <trip id="76" depart="26.60" from="167922076#0" to="458180199#0" type="ev_swarm"/>
    <trip id="77" depart="26.95" from="1211608943#0" to="1207834767#0" type="ev_swarm"/>
    <trip id="78" depart="27.30" from="1022184081#0" to="46469725" type="ev_swarm"/>
    <trip id="79" depart="27.65" from="1211049194#0" to="767683107#0" type="ev_swarm"/>
    <trip id="80" depart="28.00" from="630828583#0" to="1022184083#0" type="ev_swarm"/>
    <trip id="81" depart="28.35" from="1234631159#0" to="46520921#0" type="ev_swarm"/>
    <trip id="82" depart="28.70" from="1201643838#0" to="1053371047" type="ev_swarm"/>
    <trip id="83" depart="29.05" from="890023178#0" to="458180186#5" type="ev_swarm"/>
    <trip id="84" depart="29.40" from="420499931#0" to="5671192#3" type="ev_swarm"/>
    <trip id="85" depart="29.75" from="5672149#3" to="1150636500#0" type="ev_swarm"/>
    <trip id="86" depart="30.10" from="1030123273#3" to="36807165" type="ev_swarm"/>
    <trip id="87" depart="30.45" from="36806670" to="420494981#0" type="ev_swarm"/>
    <trip id="88" depart="30.80" from="511699184#0" to="46521993#0" type="ev_swarm"/>
    <trip id="89" depart="31.15" from="988984235#0" to="1037772009#0" type="ev_swarm"/>
    <trip id="90" depart="31.50" from="273895448#0" to="194920158#4" type="ev_swarm"/>
    <trip id="91" depart="31.85" from="1136952921#0" to="384649120#5" type="ev_swarm"/>
    <trip id="92" depart="32.20" from="36806659" to="1320234485#0" type="ev_swarm"/>
    <trip id="93" depart="32.55" from="127693383#3" to="812949648#0" type="ev_swarm"/>
    <trip id="94" depart="32.90" from="452322757#3" to="-587038129#2" type="ev_swarm"/>
    <trip id="95" depart="33.25" from="992144532" to="569345545#0" type="ev_swarm"/>
    <trip id="96" depart="33.60" from="968513230#3" to="814278019#0" type="ev_swarm"/>
    <trip id="97" depart="33.95" from="588157337#0" to="1117867038#0" type="ev_swarm"/>
    <trip id="98" depart="34.30" from="420872214" to="1201651437#4" type="ev_swarm"/>
    <trip id="99" depart="34.65" from="273019814#2" to="-989265269#2" type="ev_swarm"/>
    <trip id="100" depart="35.00" from="1313135176#0" to="5671192#3" type="ev_swarm"/>
    <trip id="101" depart="35.35" from="386972970#0" to="36806896#0" type="ev_swarm"/>
    <trip id="102" depart="35.70" from="966105510#0" to="989793293#0" type="ev_swarm"/>
    <trip id="103" depart="36.05" from="458166892#3" to="499172074#9" type="ev_swarm"/>
    <trip id="104" depart="36.40" from="1090370025#0" to="1396611411#0" type="ev_swarm"/>
    <trip id="105" depart="36.75" from="968513230#0" to="458180191#3" type="ev_swarm"/>
    <trip id="106" depart="37.10" from="447001272#1" to="542096279#0" type="ev_swarm"/>
    <trip id="107" depart="37.45" from="-68325079#1" to="458180195#0" type="ev_swarm"/>
    <trip id="108" depart="37.80" from="420903240#0" to="628093103#0" type="ev_swarm"/>
    <trip id="109" depart="38.15" from="1090370031" to="968394452#0" type="ev_swarm"/>
    <trip id="110" depart="38.50" from="1025734019#0" to="1136952921#0" type="ev_swarm"/>
    <trip id="111" depart="38.85" from="460585328#15" to="46522001#0" type="ev_swarm"/>
    <trip id="112" depart="39.20" from="1224490986#0" to="1051734606#0" type="ev_swarm"/>
    <trip id="113" depart="39.55" from="68674968#8" to="1287670364" type="ev_swarm"/>
    <trip id="114" depart="39.90" from="460585328#12" to="464516471#16" type="ev_swarm"/>
    <trip id="115" depart="40.25" from="36801164" to="458180194#0" type="ev_swarm"/>
    <trip id="116" depart="40.60" from="421852030#0" to="872052109#0" type="ev_swarm"/>
    <trip id="117" depart="40.95" from="1165644579#0" to="499172074#0" type="ev_swarm"/>
    <trip id="118" depart="41.30" from="1238990622#0" to="273019814#2" type="ev_swarm"/>
    <trip id="119" depart="41.65" from="46521993#0" to="1413159922#0" type="ev_swarm"/>
    <trip id="120" depart="42.00" from="1455345750#6" to="542257009#3" type="ev_swarm"/>
    <trip id="121" depart="42.35" from="1022184082#0" to="397795464#0" type="ev_swarm"/>
    <trip id="122" depart="42.70" from="992144531#0" to="989793293#0" type="ev_swarm"/>
    <trip id="123" depart="43.05" from="1022184083#0" to="1201651437#0" type="ev_swarm"/>
    <trip id="124" depart="43.40" from="1313135176#0" to="872052106" type="ev_swarm"/>
    <trip id="125" depart="43.75" from="68674960#0" to="68674961#4" type="ev_swarm"/>
    <trip id="126" depart="44.10" from="226040992#1" to="1106474772#0" type="ev_swarm"/>
    <trip id="127" depart="44.45" from="569345537#8" to="496990647#3" type="ev_swarm"/>
    <trip id="128" depart="44.80" from="46435596#0" to="988987061#0" type="ev_swarm"/>
    <trip id="129" depart="45.15" from="46490538#0" to="-1320232776#1" type="ev_swarm"/>
    <trip id="130" depart="45.50" from="5673380#0" to="1413159922#0" type="ev_swarm"/>
    <trip id="131" depart="45.85" from="1052631409#0" to="1049879868#0" type="ev_swarm"/>
    <trip id="132" depart="46.20" from="1040748541" to="458166895#0" type="ev_swarm"/>
    <trip id="133" depart="46.55" from="1316295726#0" to="46240204#0" type="ev_swarm"/>
    <trip id="134" depart="46.90" from="505317783#0" to="1198594028#0" type="ev_swarm"/>
    <trip id="135" depart="47.25" from="46469730" to="1316295713#6" type="ev_swarm"/>
    <trip id="136" depart="47.60" from="420892271#1" to="767683107#0" type="ev_swarm"/>
    <trip id="137" depart="47.95" from="587038081#0" to="1030123270#0" type="ev_swarm"/>
    <trip id="138" depart="48.30" from="36806670" to="1320234484#3" type="ev_swarm"/>
    <trip id="139" depart="48.65" from="-1088325196#1" to="5670139#0" type="ev_swarm"/>
    <trip id="140" depart="49.00" from="46481738#0" to="1313135177#0" type="ev_swarm"/>
    <trip id="141" depart="49.35" from="540356239#9" to="458166893#6" type="ev_swarm"/>
    <trip id="142" depart="49.70" from="36806683" to="-1320549615#1" type="ev_swarm"/>
    <trip id="143" depart="50.05" from="1022813500#1" to="68674968#12" type="ev_swarm"/>
    <trip id="144" depart="50.40" from="742215272#0" to="453367786#3" type="ev_swarm"/>
    <trip id="145" depart="50.75" from="569345538#0" to="458180193#6" type="ev_swarm"/>
    <trip id="146" depart="51.10" from="1088327048#0" to="1051750427#0" type="ev_swarm"/>
    <trip id="147" depart="51.45" from="1442249234#2" to="739911956#0" type="ev_swarm"/>
    <trip id="148" depart="51.80" from="5671629#0" to="658498537" type="ev_swarm"/>
    <trip id="149" depart="52.15" from="727702633#0" to="1201651434#0" type="ev_swarm"/>
    <trip id="150" depart="52.50" from="127693383#0" to="1038784416#0" type="ev_swarm"/>
    <trip id="151" depart="52.85" from="5670874#0" to="68674968#4" type="ev_swarm"/>
    <trip id="152" depart="53.20" from="31984130#1" to="464516471#3" type="ev_swarm"/>
    <trip id="153" depart="53.55" from="1088327054" to="846142553#0" type="ev_swarm"/>
    <trip id="154" depart="53.90" from="658488333#0" to="974611019#0" type="ev_swarm"/>
    <trip id="155" depart="54.25" from="5672483#0" to="68674965#0" type="ev_swarm"/>
    <trip id="156" depart="54.60" from="-384649121#7" to="518451332#0" type="ev_swarm"/>
    <trip id="157" depart="54.95" from="1499498642#1" to="858965315#0" type="ev_swarm"/>
    <trip id="158" depart="55.30" from="5672142#1" to="658499784" type="ev_swarm"/>
    <trip id="159" depart="55.65" from="5672483#0" to="1316295725#0" type="ev_swarm"/>
    <trip id="160" depart="56.00" from="5671276#0" to="1041018376#0" type="ev_swarm"/>
    <trip id="161" depart="56.35" from="658583340#3" to="658488333#0" type="ev_swarm"/>
    <trip id="162" depart="56.70" from="1202082365#0" to="5673561#0" type="ev_swarm"/>
    <trip id="163" depart="57.05" from="397795464#0" to="1442249234#14" type="ev_swarm"/>
    <trip id="164" depart="57.40" from="5671574#0" to="1222356566#0" type="ev_swarm"/>
    <trip id="165" depart="57.75" from="-384178812#2" to="1156946156#0" type="ev_swarm"/>
    <trip id="166" depart="58.10" from="1498928837#0" to="658499799" type="ev_swarm"/>
    <trip id="167" depart="58.45" from="968394456#0" to="1320234485#0" type="ev_swarm"/>
    <trip id="168" depart="58.80" from="46482539#0" to="273895450#0" type="ev_swarm"/>
    <trip id="169" depart="59.15" from="988977545#10" to="447001271#4" type="ev_swarm"/>
    <trip id="170" depart="59.50" from="968513231#0" to="1136391283#3" type="ev_swarm"/>
    <trip id="171" depart="59.85" from="968394454#0" to="1316295724#3" type="ev_swarm"/>
    <trip id="172" depart="60.20" from="1040888764#0" to="379843699" type="ev_swarm"/>
    <trip id="173" depart="60.55" from="511699183#0" to="1455345750#9" type="ev_swarm"/>
    <trip id="174" depart="60.90" from="46226335#0" to="420907902#0" type="ev_swarm"/>
    <trip id="175" depart="61.25" from="226041020#0" to="458180190#0" type="ev_swarm"/>
    <trip id="176" depart="61.60" from="1287670369" to="497165753#12" type="ev_swarm"/>
    <trip id="177" depart="61.95" from="-1088325194" to="814278019#0" type="ev_swarm"/>
    <trip id="178" depart="62.30" from="446193620#0" to="500717399#0" type="ev_swarm"/>
    <trip id="179" depart="62.65" from="541331485#0" to="46520921#3" type="ev_swarm"/>
    <trip id="180" depart="63.00" from="195743345#0" to="1022184082#0" type="ev_swarm"/>
    <trip id="181" depart="63.35" from="46492639#0" to="167922071#0" type="ev_swarm"/>
    <trip id="182" depart="63.70" from="1455345750#0" to="589494600" type="ev_swarm"/>
    <trip id="183" depart="64.05" from="505777310" to="1413518738" type="ev_swarm"/>
    <trip id="184" depart="64.40" from="1442249234#4" to="350726030#0" type="ev_swarm"/>
    <trip id="185" depart="64.75" from="273895447" to="1388287829#0" type="ev_swarm"/>
    <trip id="186" depart="65.10" from="1051745205#0" to="36806677" type="ev_swarm"/>
    <trip id="187" depart="65.45" from="936539648#0" to="46522003#0" type="ev_swarm"/>
    <trip id="188" depart="65.80" from="733667933#3" to="464515890#0" type="ev_swarm"/>
    <trip id="189" depart="66.15" from="1413159922#0" to="457948936#0" type="ev_swarm"/>
    <trip id="190" depart="66.50" from="-1087048475#1" to="1376704196#4" type="ev_swarm"/>
    <trip id="191" depart="66.85" from="36806903#0" to="458180192#0" type="ev_swarm"/>
    <trip id="192" depart="67.20" from="46490538#5" to="420356171#3" type="ev_swarm"/>
    <trip id="193" depart="67.55" from="381477008#0" to="1201651437#4" type="ev_swarm"/>
    <trip id="194" depart="67.90" from="420499932#0" to="743358443#0" type="ev_swarm"/>
    <trip id="195" depart="68.25" from="5671629#0" to="1123877141#0" type="ev_swarm"/>
    <trip id="196" depart="68.60" from="1027130508#0" to="420908138#0" type="ev_swarm"/>
    <trip id="197" depart="68.95" from="46469727#3" to="167922077#0" type="ev_swarm"/>
    <trip id="198" depart="69.30" from="5673515#0" to="542257009#3" type="ev_swarm"/>
    <trip id="199" depart="69.65" from="46521998#1" to="1212776159#0" type="ev_swarm"/>
    <trip id="200" depart="70.00" from="1156946158#0" to="-384826723#2" type="ev_swarm"/>
    <trip id="201" depart="70.35" from="1268207914#0" to="420512232#0" type="ev_swarm"/>
    <trip id="202" depart="70.70" from="588168464#0" to="1023136586#0" type="ev_swarm"/>
    <trip id="203" depart="71.05" from="350726030#0" to="46469723#0" type="ev_swarm"/>
    <trip id="204" depart="71.40" from="1150636500#0" to="496986803#13" type="ev_swarm"/>
    <trip id="205" depart="71.75" from="420901690#0" to="127693383#3" type="ev_swarm"/>
    <trip id="206" depart="72.10" from="46492009" to="-1136952921#1" type="ev_swarm"/>
    <trip id="207" depart="72.45" from="542257009#3" to="5670124" type="ev_swarm"/>
    <trip id="208" depart="72.80" from="1040748541" to="36806903#0" type="ev_swarm"/>
    <trip id="209" depart="73.15" from="1124078899#0" to="966105510#0" type="ev_swarm"/>
    <trip id="210" depart="73.50" from="420907906#0" to="-587038129#2" type="ev_swarm"/>
    <trip id="211" depart="73.85" from="127693383#0" to="600848479#0" type="ev_swarm"/>
    <trip id="212" depart="74.20" from="388696207#0" to="5672149#0" type="ev_swarm"/>
    <trip id="213" depart="74.55" from="46520921#0" to="988987062" type="ev_swarm"/>
    <trip id="214" depart="74.90" from="460585328#15" to="954929768#0" type="ev_swarm"/>
    <trip id="215" depart="75.25" from="700951338#0" to="464515614#0" type="ev_swarm"/>
    <trip id="216" depart="75.60" from="505777310" to="420904659#0" type="ev_swarm"/>
    <trip id="217" depart="75.95" from="569345537#0" to="457948936#0" type="ev_swarm"/>
    <trip id="218" depart="76.30" from="717625448#1" to="541350711#0" type="ev_swarm"/>
    <trip id="219" depart="76.65" from="420499932#3" to="1313135172" type="ev_swarm"/>
    <trip id="220" depart="77.00" from="127693103#0" to="46481738#3" type="ev_swarm"/>
    <trip id="221" depart="77.35" from="5669669#4" to="438384693#0" type="ev_swarm"/>
    <trip id="222" depart="77.70" from="464683341#0" to="1320234482#0" type="ev_swarm"/>
    <trip id="223" depart="78.05" from="1023238044" to="1364312922" type="ev_swarm"/>
    <trip id="224" depart="78.40" from="1316295726#0" to="1461919267" type="ev_swarm"/>
    <trip id="225" depart="78.75" from="447001271#1" to="1087744935#0" type="ev_swarm"/>
    <trip id="226" depart="79.10" from="1212776159#0" to="496983398#0" type="ev_swarm"/>
    <trip id="227" depart="79.45" from="496993762#0" to="1021051876#0" type="ev_swarm"/>
    <trip id="228" depart="79.80" from="31984136#0" to="452322757#0" type="ev_swarm"/>
    <trip id="229" depart="80.15" from="36185650#0" to="1201643837#0" type="ev_swarm"/>
    <trip id="230" depart="80.50" from="36801355" to="767683107#0" type="ev_swarm"/>
    <trip id="231" depart="80.85" from="458180192#0" to="496986803#0" type="ev_swarm"/>
    <trip id="232" depart="81.20" from="619454130#0" to="5669664#0" type="ev_swarm"/>
    <trip id="233" depart="81.55" from="226041006#0" to="-1272613980#2" type="ev_swarm"/>
    <trip id="234" depart="81.90" from="195743182#0" to="542257982#0" type="ev_swarm"/>
    <trip id="235" depart="82.25" from="600848479#0" to="962626218#0" type="ev_swarm"/>
    <trip id="236" depart="82.60" from="36801164" to="542096279#0" type="ev_swarm"/>
    <trip id="237" depart="82.95" from="452319915" to="46201643" type="ev_swarm"/>
    <trip id="238" depart="83.30" from="1201651437#4" to="1207834766#0" type="ev_swarm"/>
    <trip id="239" depart="83.65" from="36807165" to="-420872209#1" type="ev_swarm"/>
    <trip id="240" depart="84.00" from="167922073#0" to="46522006#0" type="ev_swarm"/>
    <trip id="241" depart="84.35" from="273895449#0" to="1106482769#0" type="ev_swarm"/>
    <trip id="242" depart="84.70" from="420356171#3" to="1051750427#0" type="ev_swarm"/>
    <trip id="243" depart="85.05" from="464516471#6" to="-420356169#3" type="ev_swarm"/>
    <trip id="244" depart="85.40" from="226041031" to="458177133#8" type="ev_swarm"/>
    <trip id="245" depart="85.75" from="-388696206#3" to="46482541#0" type="ev_swarm"/>
    <trip id="246" depart="86.10" from="1053371047" to="420356168#0" type="ev_swarm"/>
    <trip id="247" depart="86.45" from="-5670600#1" to="226041012#0" type="ev_swarm"/>
    <trip id="248" depart="86.80" from="1198594030#0" to="1499234747" type="ev_swarm"/>
    <trip id="249" depart="87.15" from="5669226-AddedOnRampEdge" to="226041012#0" type="ev_swarm"/>
    <trip id="250" depart="87.50" from="542257430#0" to="569345539#0" type="ev_swarm"/>
    <trip id="251" depart="87.85" from="1287670362" to="1027130508#0" type="ev_swarm"/>
    <trip id="252" depart="88.20" from="-36271338#4" to="448686048#0" type="ev_swarm"/>
    <trip id="253" depart="88.55" from="992144532" to="195743182#6" type="ev_swarm"/>
    <trip id="254" depart="88.90" from="46482604" to="5671115#7" type="ev_swarm"/>
    <trip id="255" depart="89.25" from="46482611#0" to="542258060#0" type="ev_swarm"/>
    <trip id="256" depart="89.60" from="955205137#0" to="1165644579#0" type="ev_swarm"/>
    <trip id="257" depart="89.95" from="-36801165#1" to="1090370025#0" type="ev_swarm"/>
    <trip id="258" depart="90.30" from="1051744070#0" to="46520921#0" type="ev_swarm"/>
    <trip id="259" depart="90.65" from="458177129#0" to="1207834765#0" type="ev_swarm"/>
    <trip id="260" depart="91.00" from="496989355#3" to="5669669#0" type="ev_swarm"/>
    <trip id="261" depart="91.35" from="1117867028" to="46334595#0" type="ev_swarm"/>
    <trip id="262" depart="91.70" from="542255948#0" to="1049879867#0" type="ev_swarm"/>
    <trip id="263" depart="92.05" from="5673561#0" to="968394454#4" type="ev_swarm"/>
    <trip id="264" depart="92.40" from="1040766903" to="-420356168#4" type="ev_swarm"/>
    <trip id="265" depart="92.75" from="1455345748#3" to="46522003#0" type="ev_swarm"/>
    <trip id="266" depart="93.10" from="968394450#0" to="273895447" type="ev_swarm"/>
    <trip id="267" depart="93.45" from="499172074#0" to="1025734018#0" type="ev_swarm"/>
    <trip id="268" depart="93.80" from="492489884#0" to="46469720#0" type="ev_swarm"/>
    <trip id="269" depart="94.15" from="1037772010#0" to="5670197#0" type="ev_swarm"/>
    <trip id="270" depart="94.50" from="589494595#0" to="46139020" type="ev_swarm"/>
    <trip id="271" depart="94.85" from="1049920717#0" to="988977545#10" type="ev_swarm"/>
    <trip id="272" depart="95.20" from="5671115#7" to="195743182#0" type="ev_swarm"/>
    <trip id="273" depart="95.55" from="36806896#0" to="226041002#1" type="ev_swarm"/>
    <trip id="274" depart="95.90" from="420904618#0" to="194926846#0" type="ev_swarm"/>
    <trip id="275" depart="96.25" from="588168464#0" to="569345518#0" type="ev_swarm"/>
    <trip id="276" depart="96.60" from="1038784416#0" to="968394452#0" type="ev_swarm"/>
    <trip id="277" depart="96.95" from="46469732#0" to="569345537#5" type="ev_swarm"/>
    <trip id="278" depart="97.30" from="497165753#0" to="380098431" type="ev_swarm"/>
    <trip id="279" depart="97.65" from="518451327#0" to="968394455#0" type="ev_swarm"/>
    <trip id="280" depart="98.00" from="1316295725#3" to="5672483#0" type="ev_swarm"/>
    <trip id="281" depart="98.35" from="446193620#0" to="420872214" type="ev_swarm"/>
    <trip id="282" depart="98.70" from="36807165" to="511699185#0" type="ev_swarm"/>
    <trip id="283" depart="99.05" from="1316295724#3" to="626514137#0" type="ev_swarm"/>
    <trip id="284" depart="99.40" from="569345537#0" to="1027181005#0" type="ev_swarm"/>
    <trip id="285" depart="99.75" from="68674961#0" to="127693383#3" type="ev_swarm"/>
    <trip id="286" depart="100.10" from="420356169#0" to="46435657" type="ev_swarm"/>
    <trip id="287" depart="100.45" from="226041005#4" to="-420872209#1" type="ev_swarm"/>
    <trip id="288" depart="100.80" from="589494595#0" to="1136460177#0" type="ev_swarm"/>
    <trip id="289" depart="101.15" from="1201643836#0" to="5672118#0" type="ev_swarm"/>
    <trip id="290" depart="101.50" from="169269031" to="68674961#8" type="ev_swarm"/>
    <trip id="291" depart="101.85" from="496989355#6" to="1320234484#0" type="ev_swarm"/>
    <trip id="292" depart="102.20" from="-1320549615#1" to="954520389#0" type="ev_swarm"/>
    <trip id="293" depart="102.55" from="1027130509#0" to="505317783#0" type="ev_swarm"/>
    <trip id="294" depart="102.90" from="420892271#1" to="554083352" type="ev_swarm"/>
    <trip id="295" depart="103.25" from="492489884#0" to="46482600" type="ev_swarm"/>
    <trip id="296" depart="103.60" from="420901679#0" to="5671629#0" type="ev_swarm"/>
    <trip id="297" depart="103.95" from="1027189509#2" to="1207834768#0" type="ev_swarm"/>
    <trip id="298" depart="104.30" from="492489893#0" to="1442249234#4" type="ev_swarm"/>
    <trip id="299" depart="104.65" from="458180191#0" to="420509471#0" type="ev_swarm"/>
    <trip id="300" depart="105.00" from="438385431#9" to="36806906#0" type="ev_swarm"/>
    <trip id="301" depart="105.35" from="542096278#0" to="167922071#0" type="ev_swarm"/>
    <trip id="302" depart="105.70" from="496990647#3" to="1316831694#0" type="ev_swarm"/>
    <trip id="303" depart="106.05" from="127693383#6" to="1051734606#0" type="ev_swarm"/>
    <trip id="304" depart="106.40" from="1150636497#0" to="1049920718#0" type="ev_swarm"/>
    <trip id="305" depart="106.75" from="441405436#0" to="5669226" type="ev_swarm"/>
    <trip id="306" depart="107.10" from="1136460176#0" to="1202082365#0" type="ev_swarm"/>
    <trip id="307" depart="107.45" from="420872177#0" to="511699178#0" type="ev_swarm"/>
    <trip id="308" depart="107.80" from="986615539#0" to="438385431#6" type="ev_swarm"/>
    <trip id="309" depart="108.15" from="1320549615#0" to="1037772011" type="ev_swarm"/>
    <trip id="310" depart="108.50" from="1150636499#0" to="1222356566#0" type="ev_swarm"/>
    <trip id="311" depart="108.85" from="1135620538#0" to="-167922072#1" type="ev_swarm"/>
    <trip id="312" depart="109.20" from="439933932#0" to="1320232776#0" type="ev_swarm"/>
    <trip id="313" depart="109.55" from="974611018#0" to="458166895#0" type="ev_swarm"/>
    <trip id="314" depart="109.90" from="496986803#3" to="1051750425#0" type="ev_swarm"/>
    <trip id="315" depart="110.25" from="658498543#2" to="420901690#0" type="ev_swarm"/>
    <trip id="316" depart="110.60" from="658583340#3" to="458180187#6" type="ev_swarm"/>
    <trip id="317" depart="110.95" from="420494981#0" to="381480256#2" type="ev_swarm"/>
    <trip id="318" depart="111.30" from="1136391284#0" to="-589494596#1" type="ev_swarm"/>
    <trip id="319" depart="111.65" from="942444177#0" to="420598366#0" type="ev_swarm"/>
    <trip id="320" depart="112.00" from="569345508#0" to="308322447#3" type="ev_swarm"/>
    <trip id="321" depart="112.35" from="1022796561" to="46469723#0" type="ev_swarm"/>
    <trip id="322" depart="112.70" from="-571651963#2" to="1088327051" type="ev_swarm"/>
    <trip id="323" depart="113.05" from="458177128#6" to="1442249232#3" type="ev_swarm"/>
    <trip id="324" depart="113.40" from="989793292#0" to="1049920717#0" type="ev_swarm"/>
    <trip id="325" depart="113.75" from="5669669#0" to="46334593#0" type="ev_swarm"/>
    <trip id="326" depart="114.10" from="5671349#0" to="1213301201" type="ev_swarm"/>
    <trip id="327" depart="114.45" from="421852030#0" to="384649121#0" type="ev_swarm"/>
    <trip id="328" depart="114.80" from="989265273#4" to="1442249234#14" type="ev_swarm"/>
    <trip id="329" depart="115.15" from="464516471#16" to="46435657" type="ev_swarm"/>
    <trip id="330" depart="115.50" from="540356239#5" to="954520389#0" type="ev_swarm"/>
    <trip id="331" depart="115.85" from="1198594026#0" to="1201651435#0" type="ev_swarm"/>