<?xml version="1.0" encoding="UTF-8"?>

<!-- generated on 2026-05-09 19:22:48 by Eclipse SUMO netconvert Version 1.19.0
<configuration xmlns:xsi="http://www.w3.org/2001/XMLSchema-instance" xsi:noNamespaceSchemaLocation="http://sumo.dlr.de/xsd/netconvertConfiguration.xsd">

    <input>
        <osm-files value="manhattan.osm"/>
    </input>

    <output>
        <output-file value="midtown.net.xml"/>
    </output>

    <projection>
        <proj.utm value="true"/>
    </projection>

    <processing>
        <geometry.remove value="true"/>
        <roundabouts.guess value="true"/>
    </processing>

    <tls_building>
        <tls.discard-simple value="true"/>
        <tls.join value="true"/>
        <tls.guess-signals value="true"/>
    </tls_building>

    <ramp_guessing>
        <ramps.guess value="true"/>
    </ramp_guessing>

    <edge_removal>
        <keep-edges.in-geo-boundary value="-74.000,40.745,-73.970,40.765"/>
        <keep-edges.by-vclass value="passenger"/>
        <remove-edges.isolated value="true"/>
    </edge_removal>

    <junctions>
        <no-internal-links value="true"/>
        <junctions.join value="true"/>
    </junctions>

</configuration>
-->

<net version="1.16" junctionCornerDetail="5" limitTurnSpeed="5.50" xmlns:xsi="http://www.w3.org/2001/XMLSchema-instance" xsi:noNamespaceSchemaLocation="http://sumo.dlr.de/xsd/net_file.xsd">

    <location netOffset="-583561.71,-4510574.21" convBoundary="0.00,0.00,4746.08,2686.09" origBoundary="-74.274430,40.409428,-70.554557,41.458438" projParameter="+proj=utm +zone=18 +ellps=WGS84 +datum=WGS84 +units=m +no_defs"/>

    <type id="highway.living_street" priority="2" numLanes="1" speed="2.78" disallow="tram rail_urban rail rail_electric rail_fast ship" oneway="0"/>
    <type id="highway.motorway" priority="14" numLanes="2" speed="39.44" allow="private emergency authority army vip passenger hov taxi bus coach delivery truck trailer motorcycle evehicle custom1 custom2" oneway="1"/>
    <type id="highway.motorway_link" priority="9" numLanes="1" speed="22.22" allow="private emergency authority army vip passenger hov taxi bus coach delivery truck trailer motorcycle evehicle custom1 custom2" oneway="1"/>
    <type id="highway.primary" priority="12" numLanes="2" speed="27.78" disallow="tram rail_urban rail rail_electric rail_fast ship" oneway="0"/>
    <type id="highway.primary_link" priority="7" numLanes="1" speed="22.22" disallow="tram rail_urban rail rail_electric rail_fast ship" oneway="0"/>
    <type id="highway.residential" priority="3" numLanes="1" speed="13.89" disallow="tram rail_urban rail rail_electric rail_fast ship" oneway="0"/>
    <type id="highway.secondary" priority="11" numLanes="1" speed="27.78" disallow="tram rail_urban rail rail_electric rail_fast ship" oneway="0"/>
    <type id="highway.tertiary" priority="10" numLanes="1" speed="22.22" disallow="tram rail_urban rail rail_electric rail_fast ship" oneway="0"/>
    <type id="highway.tertiary_link" priority="5" numLanes="1" speed="22.22" disallow="tram rail_urban rail rail_electric rail_fast ship" oneway="0"/>
    <type id="highway.trunk" priority="13" numLanes="2" speed="27.78" disallow="pedestrian bicycle tram rail_urban rail rail_electric rail_fast ship" oneway="0"/>
    <type id="highway.unclassified" priority="4" numLanes="1" speed="13.89" disallow="tram rail_urban rail rail_electric rail_fast ship" oneway="0"/>

    <edge id="-1087048475#1" from="42432825" to="42432818" priority="12" type="highway.primary" shape="3174.38,2303.73 3165.23,2308.67 3108.66,2339.18 3048.31,2371.66 3037.69,2377.38">
        <lane id="-1087048475#1_0" index="0" disallow="tram rail_urban rail rail_electric rail_fast ship" speed="27.78" length="155.27" shape="3166.12,2313.64 3110.93,2343.41 3050.52,2375.92"/>
        <lane id="-1087048475#1_1" index="1" disallow="tram rail_urban rail rail_electric rail_fast ship" speed="27.78" length="155.27" shape="3164.60,2310.83 3109.41,2340.59 3049.01,2373.10"/>
    </edge>
    <edge id="-1088325194" from="9971314378" to="42445382" priority="12" type="highway.primary">
        <lane id="-1088325194_0" index="0" disallow="tram rail_urban rail rail_electric rail_fast ship" speed="11.18" length="29.27" shape="2752.22,431.15 2766.93,423.35"/>
        <lane id="-1088325194_1" index="1" disallow="tram rail_urban rail rail_electric rail_fast ship" speed="11.18" length="29.27" shape="2753.72,433.98 2768.43,426.18"/>
    </edge>
    <edge id="-1088325195#2" from="cluster_3786901743_561042190" to="9971314381" priority="12" type="highway.primary" shape="2442.77,602.28 2449.85,598.50 2455.09,595.70 2476.54,584.11">
        <lane id="-1088325195#2_0" index="0" disallow="tram rail_urban rail rail_electric rail_fast ship" speed="11.18" length="47.40" shape="2448.88,593.57 2452.81,591.47 2470.74,581.79"/>
        <lane id="-1088325195#2_1" index="1" disallow="tram rail_urban rail rail_electric rail_fast ship" speed="11.18" length="47.40" shape="2450.38,596.40 2454.33,594.29 2472.26,584.60"/>
    </edge>
    <edge id="-1088325196#1" from="9971314382" to="42437644" priority="12" type="highway.primary" shape="2129.96,773.27 2152.72,761.24 2164.09,755.33">
        <lane id="-1088325196#1_0" index="0" disallow="tram rail_urban rail rail_electric rail_fast ship" speed="11.18" length="38.56" shape="2129.76,764.33 2149.00,754.16 2149.91,753.69"/>
        <lane id="-1088325196#1_1" index="1" disallow="tram rail_urban rail rail_electric rail_fast ship" speed="11.18" length="38.56" shape="2131.25,767.16 2150.48,757.00 2151.38,756.53"/>
        <lane id="-1088325196#1_2" index="2" disallow="tram rail_urban rail rail_electric rail_fast ship" speed="11.18" length="38.56" shape="2132.75,769.99 2151.97,759.83 2152.86,759.37"/>
    </edge>
    <edge id="-1088325197#1" from="42437663" to="9971314388" priority="12" type="highway.primary" shape="1163.98,1293.83 1153.50,1299.41 1116.19,1319.27">
        <lane id="-1088325197#1_0" index="0" disallow="pedestrian tram rail_urban rail rail_electric rail_fast ship" speed="11.18" length="54.14" shape="1155.59,1303.73 1121.98,1321.62"/>
        <lane id="-1088325197#1_1" index="1" disallow="pedestrian tram rail_urban rail rail_electric rail_fast ship" speed="11.18" length="54.14" shape="1154.09,1300.91 1120.48,1318.80"/>
    </edge>
    <edge id="-1136952921#1" from="42428287" to="10598594003" priority="12" type="highway.primary" shape="1995.99,1571.13 2007.50,1564.92 2029.48,1553.00 2038.95,1547.86">
        <lane id="-1136952921#1_0" index="0" disallow="tram rail_urban rail rail_electric rail_fast ship" speed="11.18" length="48.86" shape="1999.42,1563.82 2005.21,1560.70 2027.20,1548.78 2033.14,1545.55"/>
        <lane id="-1136952921#1_1" index="1" disallow="tram rail_urban rail rail_electric rail_fast ship" speed="11.18" length="48.86" shape="2000.94,1566.64 2006.74,1563.51 2028.72,1551.59 2034.67,1548.36"/>
    </edge>
    <edge id="-1272613980#2" from="11817409610" to="11337295604" priority="12" type="highway.primary" shape="2833.08,1118.83 2863.38,1102.47 2868.63,1099.62 2877.00,1095.07">
        <lane id="-1272613980#2_0" index="0" disallow="tram rail_urban rail rail_electric rail_fast ship" speed="11.18" length="49.94" shape="2832.80,1109.89 2859.57,1095.43 2864.00,1093.03"/>
        <lane id="-1272613980#2_1" index="1" disallow="tram rail_urban rail rail_electric rail_fast ship" speed="11.18" length="49.94" shape="2834.32,1112.71 2861.10,1098.24 2865.53,1095.84"/>
        <lane id="-1272613980#2_2" index="2" disallow="tram rail_urban rail rail_electric rail_fast ship" speed="11.18" length="49.94" shape="2835.84,1115.53 2862.62,1101.06 2867.06,1098.65"/>
    </edge>
    <edge id="-1272613981#1" from="42437358" to="42445916" priority="12" type="highway.primary" shape="2467.13,1316.92 2477.33,1311.99 2513.56,1292.63 2594.01,1249.07 2602.38,1244.33">
        <lane id="-1272613981#1_0" index="0" disallow="tram rail_urban rail rail_electric rail_fast ship" speed="11.18" length="153.51" shape="2475.49,1307.53 2511.29,1288.40 2590.94,1245.27"/>
        <lane id="-1272613981#1_1" index="1" disallow="tram rail_urban rail rail_electric rail_fast ship" speed="11.18" length="153.51" shape="2476.89,1310.41 2512.80,1291.22 2592.52,1248.05"/>
    </edge>
    <edge id="-1320232776#1" from="42430333" to="1289222431" priority="12" type="highway.primary" shape="2191.97,1464.89 2203.33,1458.79 2233.12,1442.84">
        <lane id="-1320232776#1_0" index="0" disallow="tram rail_urban rail rail_electric rail_fast ship" speed="11.18" length="46.68" shape="2200.30,1454.97 2201.07,1454.56 2227.33,1440.50"/>
        <lane id="-1320232776#1_1" index="1" disallow="tram rail_urban rail rail_electric rail_fast ship" speed="11.18" length="46.68" shape="2201.82,1457.79 2202.58,1457.38 2228.84,1443.32"/>
    </edge>
    <edge id="-1320290376#1" from="42437368" to="12217736860" priority="12" type="highway.primary" shape="1467.53,1855.18 1477.04,1850.49 1480.25,1848.76 1483.99,1846.74 1518.27,1828.25">
        <lane id="-1320290376#1_0" index="0" disallow="pedestrian tram rail_urban rail rail_electric rail_fast ship" speed="11.18" length="57.45" shape="1478.01,1844.52 1481.71,1842.51 1512.47,1825.92"/>
        <lane id="-1320290376#1_1" index="1" disallow="pedestrian tram rail_urban rail rail_electric rail_fast ship" speed="11.18" length="57.45" shape="1479.42,1847.39 1483.23,1845.33 1513.99,1828.74"/>
    </edge>
    <edge id="-1320549615#1" from="12220427275" to="42434439" priority="12" type="highway.primary" shape="1401.72,1890.75 1367.78,1909.09 1357.86,1914.45">
        <lane id="-1320549615#1_0" index="0" disallow="tram rail_urban rail rail_electric rail_fast ship" speed="11.18" length="49.85" shape="1400.48,1896.87 1370.06,1913.31 1366.37,1915.30"/>
        <lane id="-1320549615#1_1" index="1" disallow="tram rail_urban rail rail_electric rail_fast ship" speed="11.18" length="49.85" shape="1398.96,1894.06 1368.54,1910.49 1364.85,1912.49"/>
    </edge>
    <edge id="-1321771943#1" from="12231119049" to="42435663" priority="12" type="highway.primary" shape="1640.09,1762.11 1663.98,1749.36 1698.39,1730.80 1710.00,1724.84">
        <lane id="-1321771943#1_0" index="0" disallow="pedestrian tram rail_urban rail rail_electric rail_fast ship" speed="11.18" length="79.24" shape="1639.85,1753.17 1660.20,1742.32 1694.67,1723.72 1696.93,1722.56"/>
        <lane id="-1321771943#1_1" index="1" disallow="pedestrian tram rail_urban rail rail_electric rail_fast ship" speed="11.18" length="79.24" shape="1641.35,1755.99 1661.71,1745.13 1696.16,1726.55 1698.39,1725.40"/>
        <lane id="-1321771943#1_2" index="2" disallow="pedestrian tram rail_urban rail rail_electric rail_fast ship" speed="11.18" length="79.24" shape="1642.86,1758.82 1663.22,1747.95 1697.65,1729.38 1699.85,1728.25"/>
    </edge>
    <edge id="-139919706#1" from="42434427" to="9971300853" priority="12" type="highway.primary" shape="1054.12,1352.31 1060.51,1363.61 1075.91,1393.04">
        <lane id="-139919706#1_0" index="0" disallow="pedestrian tram rail_urban rail rail_electric rail_fast ship" speed="11.18" length="46.19" shape="1062.23,1363.45 1077.22,1392.09"/>
    </edge>
    <edge id="-1413518738" from="12989986307" to="42428305" priority="2" type="highway.living_street" shape="2128.71,2038.98 2129.38,2040.97 2125.98,2049.28">
        <lane id="-1413518738_0" index="0" disallow="tram rail_urban rail rail_electric rail_fast ship" speed="2.78" length="14.48" shape="2129.77,2037.10 2129.83,2037.29"/>
    </edge>
    <edge id="-1413518739#1" from="12989986305" to="12989986304" priority="2" type="highway.living_street" shape="2109.73,1968.94 2111.57,1975.76 2112.84,1980.51">
        <lane id="-1413518739#1_0" index="0" disallow="tram rail_urban rail rail_electric rail_fast ship" speed="2.78" length="11.98" shape="2113.36,1976.26 2114.38,1980.09"/>
    </edge>
    <edge id="-167922072#1" from="10598594003" to="42430333" priority="12" type="highway.primary" shape="2038.95,1547.86 2065.96,1533.22 2179.73,1471.54 2191.97,1464.89">
        <lane id="-167922072#1_0" index="0" disallow="tram rail_urban rail rail_electric rail_fast ship" speed="11.18" length="174.07" shape="2040.18,1541.74 2063.67,1529.00 2177.44,1467.32 2179.19,1466.37"/>
        <lane id="-167922072#1_1" index="1" disallow="tram rail_urban rail rail_electric rail_fast ship" speed="11.18" length="174.07" shape="2041.70,1544.55 2065.19,1531.82 2178.97,1470.14 2180.72,1469.18"/>
    </edge>
    <edge id="-167922076#2" from="42437363" to="42428287" priority="12" type="highway.primary" shape="1951.48,1594.68 1961.52,1589.49 1988.87,1574.92 1995.99,1571.13">
        <lane id="-167922076#2_0" index="0" disallow="tram rail_urban rail rail_electric rail_fast ship" speed="11.18" length="50.36" shape="1958.61,1585.59 1959.29,1585.24 1986.61,1570.68 1991.10,1568.29"/>
        <lane id="-167922076#2_1" index="1" disallow="tram rail_urban rail rail_electric rail_fast ship" speed="11.18" length="50.36" shape="1960.08,1588.44 1960.78,1588.07 1988.11,1573.51 1992.61,1571.11"/>
    </edge>
    <edge id="-167922077#1" from="42437368" to="12220427275" priority="12" type="highway.primary" shape="1467.53,1855.18 1455.93,1861.45 1401.72,1890.75">
        <lane id="-167922077#1_0" index="0" disallow="tram rail_urban rail rail_electric rail_fast ship" speed="11.18" length="74.81" shape="1457.94,1865.82 1407.52,1893.07"/>
        <lane id="-167922077#1_1" index="1" disallow="tram rail_urban rail rail_electric rail_fast ship" speed="11.18" length="74.81" shape="1456.42,1863.01 1406.00,1890.25"/>
    </edge>
    <edge id="-195743208#6" from="42437654" to="42435644" priority="12" type="highway.primary" shape="1648.67,1033.10 1636.71,1039.49 1541.96,1090.84 1534.37,1094.78 1527.40,1098.56 1472.52,1128.19 1417.78,1156.89 1406.91,1162.37">
        <lane id="-195743208#6_0" index="0" disallow="tram rail_urban rail rail_electric rail_fast ship" speed="11.18" length="274.16" shape="1640.31,1043.00 1638.99,1043.71 1544.21,1095.09 1536.62,1099.02 1529.68,1102.78 1474.77,1132.43 1419.97,1161.16 1418.22,1162.04"/>
        <lane id="-195743208#6_1" index="1" disallow="tram rail_urban rail rail_electric rail_fast ship" speed="11.18" length="274.16" shape="1638.81,1040.18 1637.47,1040.90 1542.71,1092.26 1535.12,1096.19 1528.16,1099.97 1473.27,1129.61 1418.51,1158.31 1416.78,1159.18"/>
    </edge>
    <edge id="-226041024#1" from="6928075146" to="42454433" priority="3" type="highway.residential" shape="1122.48,2139.57 1256.65,2068.04 1268.79,2061.57">
        <lane id="-226041024#1_0" index="0" disallow="tram rail_urban rail rail_electric rail_fast ship" speed="13.89" length="165.79" shape="1123.05,2137.45 1255.90,2066.63 1258.86,2065.05"/>
    </edge>
    <edge id="-273019810#4" from="42437670" to="5851809158" priority="12" type="highway.primary" shape="923.50,1422.45 912.37,1428.51 813.93,1481.01">
        <lane id="-273019810#4_0" index="0" disallow="pedestrian tram rail_urban rail rail_electric rail_fast ship" speed="11.18" length="124.24" shape="915.14,1432.46 914.64,1432.73 816.19,1485.24"/>
        <lane id="-273019810#4_1" index="1" disallow="pedestrian tram rail_urban rail rail_electric rail_fast ship" speed="11.18" length="124.24" shape="913.61,1429.65 913.12,1429.91 814.68,1482.42"/>
    </edge>
    <edge id="-36271338#12" from="42432464" to="42432458" priority="3" type="highway.residential" shape="3163.15,845.80 3152.77,851.64 3144.79,856.13 3126.83,865.71 3119.97,869.38 3085.37,887.83 3062.46,900.06 3052.53,905.43 3046.47,908.71">
        <lane id="-36271338#12_0" index="0" disallow="tram rail_urban rail rail_electric rail_fast ship" speed="11.18" length="132.55" shape="3152.10,853.85 3145.56,857.54 3127.58,867.13 3120.72,870.79 3086.13,889.24 3063.21,901.47 3054.99,905.92"/>
    </edge>
    <edge id="-36271338#4" from="42432458" to="42432451" priority="3" type="highway.residential" shape="3046.47,908.71 3040.81,911.79 3032.94,916.04 2990.11,939.21 2984.68,942.19 2971.67,949.33">
        <lane id="-36271338#4_0" index="0" disallow="tram rail_urban rail rail_electric rail_fast ship" speed="11.18" length="85.12" shape="3039.53,914.30 3033.70,917.45 2990.87,940.62 2985.45,943.59 2982.92,944.98"/>
    </edge>
    <edge id="-36801165#1" from="8261122946" to="593839894" priority="12" type="highway.primary" shape="839.80,1840.05 841.01,1842.30 869.04,1894.50 872.87,1901.81">
        <lane id="-36801165#1_0" index="0" disallow="tram rail_urban rail rail_electric rail_fast ship" speed="11.18" length="70.06" shape="844.02,1837.77 845.24,1840.03 873.27,1892.24 874.65,1894.88"/>
        <lane id="-36801165#1_1" index="1" disallow="tram rail_urban rail rail_electric rail_fast ship" speed="11.18" length="70.06" shape="841.21,1839.29 842.42,1841.55 870.45,1893.75 871.82,1896.37"/>
    </edge>
    <edge id="-36806903#1" from="9971314388" to="42434427" priority="12" type="highway.primary" shape="1116.19,1319.27 1102.85,1326.39 1086.72,1334.98 1054.12,1352.31">
        <lane id="-36806903#1_0" index="0" disallow="pedestrian tram rail_urban rail rail_electric rail_fast ship" speed="11.18" length="70.32" shape="1116.43,1328.21 1106.61,1333.45 1090.47,1342.05 1064.45,1355.88"/>
        <lane id="-36806903#1_1" index="1" disallow="pedestrian tram rail_urban rail rail_electric rail_fast ship" speed="11.18" length="70.32" shape="1114.92,1325.38 1105.11,1330.62 1088.97,1339.22 1062.95,1353.05"/>
        <lane id="-36806903#1_2" index="2" disallow="pedestrian tram rail_urban rail rail_electric rail_fast ship" speed="11.18" length="70.32" shape="1113.42,1322.56 1103.60,1327.80 1087.47,1336.40 1061.45,1350.22"/>
    </edge>
    <edge id="-381477004#2" from="42449689" to="42454006" priority="4" type="highway.unclassified" shape="3086.54,529.79 3090.44,537.12 3101.66,557.97 3110.42,575.15 3120.18,592.40 3123.38,598.38">
        <lane id="-381477004#2_0" index="0" disallow="tram rail_urban rail rail_electric rail_fast ship" speed="11.18" length="77.86" shape="3092.85,538.21 3103.08,557.22 3111.83,574.40 3121.38,591.28"/>
    </edge>
    <edge id="-381477008#1" from="6166333257" to="42442918" priority="11" type="highway.secondary" shape="2930.42,616.12 2937.58,611.20 3003.04,575.39 3014.76,568.84">
        <lane id="-381477008#1_0" index="0" disallow="tram rail_urban rail rail_electric rail_fast ship" speed="11.18" length="96.73" shape="2929.51,614.80 2936.74,609.84 3002.06,574.09"/>
    </edge>
    <edge id="-384178812#2" from="8239225259" to="42435624" priority="11" type="highway.secondary" shape="762.10,516.87 895.53,444.71 979.98,399.02 992.37,392.33">
        <lane id="-384178812#2_0" index="0" disallow="tram rail_urban rail rail_electric rail_fast ship" speed="11.18" length="261.79" shape="759.82,512.65 893.25,440.49 977.70,394.80 980.94,393.05"/>
        <lane id="-384178812#2_1" index="1" disallow="tram rail_urban rail rail_electric rail_fast ship" speed="11.18" length="261.79" shape="761.34,515.47 894.77,443.30 979.22,397.61 982.46,395.87"/>
    </edge>
    <edge id="-384649121#7" from="42430304" to="42437654" priority="12" type="highway.primary" shape="1892.15,901.78 1883.18,906.63 1879.77,908.56 1865.48,916.23 1846.28,926.54 1772.80,966.17 1766.64,969.48 1760.17,972.97 1658.38,1027.90 1648.67,1033.10">
        <lane id="-384649121#7_0" index="0" disallow="tram rail_urban rail rail_electric rail_fast ship" speed="11.18" length="276.63" shape="1884.78,911.25 1882.08,912.77 1867.75,920.46 1848.55,930.76 1775.07,970.39 1768.91,973.71 1762.45,977.20 1661.48,1031.68"/>
        <lane id="-384649121#7_1" index="1" disallow="tram rail_urban rail rail_electric rail_fast ship" speed="11.18" length="276.63" shape="1883.25,908.43 1880.54,909.96 1866.23,917.64 1847.04,927.95 1773.56,967.58 1767.40,970.89 1760.93,974.38 1659.97,1028.86"/>
    </edge>
    <edge id="-384826723#2" from="42442937" to="9140884594" priority="12" type="highway.primary" shape="3204.56,920.61 3192.01,927.49 3186.71,930.45 3133.72,958.24">
        <lane id="-384826723#2_0" index="0" disallow="tram rail_urban rail rail_electric rail_fast ship" speed="11.18" length="80.22" shape="3196.32,930.60 3194.33,931.70 3188.99,934.67 3139.49,960.64"/>
        <lane id="-384826723#2_1" index="1" disallow="tram rail_urban rail rail_electric rail_fast ship" speed="11.18" length="80.22" shape="3194.79,927.80 3192.78,928.90 3187.47,931.86 3138.01,957.80"/>
    </edge>
    <edge id="-388696206#3" from="cluster_42432834_596775935" to="42432825" priority="12" type="highway.primary" shape="3303.26,2233.90 3293.97,2238.94 3289.12,2241.56 3284.99,2243.80 3183.91,2298.56 3174.38,2303.73">
        <lane id="-388696206#3_0" index="0" disallow="tram rail_urban rail rail_electric rail_fast ship" speed="27.78" length="155.13" shape="3297.80,2242.32 3296.25,2243.16 3291.40,2245.78 3287.27,2248.02 3187.24,2302.22"/>
        <lane id="-388696206#3_1" index="1" disallow="tram rail_urban rail rail_electric rail_fast ship" speed="27.78" length="155.13" shape="3296.28,2239.50 3294.73,2240.34 3289.88,2242.97 3285.75,2245.21 3185.72,2299.40"/>
    </edge>
    <edge id="-420356168#4" from="11337295604" to="11337295608" priority="12" type="highway.primary" shape="2877.00,1095.07 2886.12,1090.10 2890.33,1087.80 2996.66,1030.54 3001.41,1027.88 3011.38,1022.70">
        <lane id="-420356168#4_0" index="0" disallow="tram rail_urban rail rail_electric rail_fast ship" speed="11.18" length="152.63" shape="2882.27,1083.08 2886.52,1080.77 2992.87,1023.50 2996.96,1021.20"/>
        <lane id="-420356168#4_1" index="1" disallow="tram rail_urban rail rail_electric rail_fast ship" speed="11.18" length="152.63" shape="2883.80,1085.90 2888.04,1083.58 2994.38,1026.31 2998.43,1024.05"/>
        <lane id="-420356168#4_2" index="2" disallow="tram rail_urban rail rail_electric rail_fast ship" speed="11.18" length="152.63" shape="2885.33,1088.71 2889.57,1086.40 2995.90,1029.13 2999.91,1026.89"/>
    </edge>
    <edge id="-420356169#3" from="4202958489" to="11337295608" priority="12" type="highway.primary" shape="3085.36,984.10 3063.64,995.36 3027.67,1014.02 3025.01,1015.40 3011.38,1022.70">
        <lane id="-420356169#3_0" index="0" disallow="tram rail_urban rail rail_electric rail_fast ship" speed="11.18" length="83.45" shape="3085.49,993.04 3067.32,1002.46 3031.35,1021.12 3028.75,1022.48 3025.74,1024.09"/>
        <lane id="-420356169#3_1" index="1" disallow="tram rail_urban rail rail_electric rail_fast ship" speed="11.18" length="83.45" shape="3084.02,990.20 3065.85,999.62 3029.88,1018.28 3027.26,1019.65 3024.23,1021.27"/>
        <lane id="-420356169#3_2" index="2" disallow="tram rail_urban rail rail_electric rail_fast ship" speed="11.18" length="83.45" shape="3082.55,987.36 3064.38,996.78 3028.40,1015.44 3025.76,1016.82 3022.72,1018.45"/>
    </edge>
    <edge id="-420509471#6" from="42435644" to="42437663" priority="12" type="highway.primary" shape="1406.91,1162.37 1394.22,1168.71 1316.51,1209.71 1309.88,1213.20 1302.94,1216.87 1262.80,1238.44 1256.49,1242.02 1250.52,1245.61 1221.47,1263.16 1214.41,1267.03 1208.25,1270.40 1177.49,1286.95 1163.98,1293.83">
        <lane id="-420509471#6_0" index="0" disallow="pedestrian tram rail_urban rail rail_electric rail_fast ship" speed="11.18" length="276.28" shape="1399.59,1171.39 1396.42,1172.98 1318.75,1213.95 1312.12,1217.45 1305.20,1221.10 1265.12,1242.65 1258.91,1246.17 1252.99,1249.72 1223.87,1267.32 1216.72,1271.24 1210.53,1274.62 1179.71,1291.20 1176.90,1292.63"/>
        <lane id="-420509471#6_1" index="1" disallow="pedestrian tram rail_urban rail rail_electric rail_fast ship" speed="11.18" length="276.28" shape="1398.16,1168.53 1394.95,1170.13 1317.26,1211.12 1310.62,1214.62 1303.70,1218.28 1263.57,1239.84 1257.30,1243.41 1251.34,1246.98 1222.27,1264.55 1215.18,1268.44 1209.01,1271.81 1178.23,1288.37 1175.45,1289.78"/>
    </edge>
    <edge id="-420598407#1" from="4205565530" to="42435624" priority="11" type="highway.secondary" shape="1221.82,268.10 1003.39,386.36 992.37,392.33">
        <lane id="-420598407#1_0" index="0" disallow="tram rail_urban rail rail_electric rail_fast ship" speed="11.18" length="260.93" shape="1224.11,272.32 1005.68,390.58 1003.92,391.53"/>
        <lane id="-420598407#1_1" index="1" disallow="tram rail_urban rail rail_electric rail_fast ship" speed="11.18" length="260.93" shape="1222.59,269.51 1004.15,387.77 1002.40,388.72"/>
    </edge>
    <edge id="-420872209#1" from="42434962" to="42434965" priority="11" type="highway.secondary" shape="2822.17,494.83 2830.45,490.76 2907.70,449.08 2929.22,437.51 2940.16,431.47">
        <lane id="-420872209#1_0" index="0" disallow="tram rail_urban rail rail_electric rail_fast ship" speed="11.18" length="133.93" shape="2827.90,486.66 2828.25,486.49 2905.42,444.86 2925.91,433.84"/>
        <lane id="-420872209#1_1" index="1" disallow="tram rail_urban rail rail_electric rail_fast ship" speed="11.18" length="133.93" shape="2829.31,489.54 2829.71,489.34 2906.94,447.68 2927.46,436.64"/>
    </edge>
    <edge id="-420904618#3" from="42434439" to="42437371" priority="12" type="highway.primary" shape="1357.86,1914.45 1350.20,1918.59 1345.55,1921.10 1238.52,1978.95 1227.40,1984.96">
        <lane id="-420904618#3_0" index="0" disallow="tram rail_urban rail rail_electric rail_fast ship" speed="27.78" length="148.30" shape="1353.79,1922.11 1352.48,1922.81 1347.84,1925.32 1240.81,1983.17 1240.25,1983.47"/>
        <lane id="-420904618#3_1" index="1" disallow="tram rail_urban rail rail_electric rail_fast ship" speed="27.78" length="148.30" shape="1352.27,1919.29 1350.96,1920.00 1346.32,1922.51 1239.28,1980.36 1238.73,1980.66"/>
    </edge>
    <edge id="-420904620" from="9019680388" to="42430673" priority="12" type="highway.primary">
        <lane id="-420904620_0" index="0" disallow="tram rail_urban rail rail_electric rail_fast ship" speed="11.18" length="10.32" shape="988.46,2117.46 988.29,2117.56"/>
    </edge>
    <edge id="-420904621#2" from="6293725833" to="4500916751" priority="12" type="highway.primary" shape="936.03,2143.65 914.34,2155.37 860.91,2184.23 811.71,2210.31">
        <lane id="-420904621#2_0" index="0" disallow="tram rail_urban rail rail_electric rail_fast ship" speed="11.18" length="141.06" shape="934.79,2149.77 916.62,2159.59 863.17,2188.47 813.96,2214.55"/>
        <lane id="-420904621#2_1" index="1" disallow="tram rail_urban rail rail_electric rail_fast ship" speed="11.18" length="141.06" shape="933.27,2146.95 915.10,2156.77 861.66,2185.64 812.46,2211.72"/>
    </edge>
    <edge id="-420904658#3" from="42445365" to="cluster_3786901743_561042190" priority="12" type="highway.primary" shape="2298.72,681.03 2306.24,676.91 2318.88,670.42 2347.62,653.55 2398.92,625.67 2412.81,618.30 2420.19,614.35 2426.80,610.82">
        <lane id="-420904658#3_0" index="0" disallow="tram rail_urban rail rail_electric rail_fast ship" speed="11.18" length="155.14" shape="2305.63,671.83 2316.57,666.21 2345.26,649.37 2396.65,621.45 2410.56,614.06 2416.80,610.73"/>
        <lane id="-420904658#3_1" index="1" disallow="tram rail_urban rail rail_electric rail_fast ship" speed="11.18" length="155.14" shape="2307.17,674.64 2318.11,669.02 2346.84,652.15 2398.16,624.26 2412.06,616.88 2418.30,613.55"/>
    </edge>
    <edge id="-420904659#1" from="42437644" to="4207937589" priority="12" type="highway.primary" shape="2164.09,755.33 2173.68,750.15 2231.83,718.69 2257.80,703.02">
        <lane id="-420904659#1_0" index="0" disallow="tram rail_urban rail rail_electric rail_fast ship" speed="11.18" length="107.34" shape="2172.44,745.36 2229.44,714.53 2252.00,700.91"/>
        <lane id="-420904659#1_1" index="1" disallow="tram rail_urban rail rail_electric rail_fast ship" speed="11.18" length="107.34" shape="2173.96,748.18 2231.03,717.31 2253.66,703.65"/>
    </edge>
    <edge id="-46139021#2" from="42454006" to="42445666" priority="4" type="highway.unclassified" shape="3123.38,598.38 3127.73,606.38 3157.95,661.92 3161.71,668.84">
        <lane id="-46139021#2_0" index="0" disallow="tram rail_urban rail rail_electric rail_fast ship" speed="11.18" length="80.21" shape="3131.08,602.48 3131.95,604.08 3162.17,659.63 3162.49,660.21"/>
        <lane id="-46139021#2_1" index="1" disallow="tram rail_urban rail rail_electric rail_fast ship" speed="11.18" length="80.21" shape="3128.27,604.01 3129.14,605.61 3159.36,661.15 3159.67,661.74"/>
    </edge>
    <edge id="-46469725" from="593886226" to="42432540" priority="3" type="highway.residential">
        <lane id="-46469725_0" index="0" disallow="tram rail_urban rail rail_electric rail_fast ship" speed="13.89" length="20.85" shape="3333.18,755.43 3320.83,762.06"/>
    </edge>
    <edge id="-46520921#2" from="42443810" to="42443807" priority="4" type="highway.unclassified" shape="2795.59,1417.39 2792.44,1411.43 2782.66,1393.13 2761.40,1353.48 2757.80,1346.76">
        <lane id="-46520921#2_0" index="0" disallow="tram rail_urban rail rail_electric rail_fast ship" speed="11.18" length="80.11" shape="2790.79,1411.73 2781.25,1393.88 2759.99,1354.23 2759.03,1352.45"/>
    </edge>
    <edge id="-46520921#5" from="42434077" to="42443810" priority="4" type="highway.unclassified" shape="2833.69,1488.61 2830.22,1482.32 2799.34,1424.42 2795.59,1417.39">
        <lane id="-46520921#5_0" index="0" disallow="tram rail_urban rail rail_electric rail_fast ship" speed="11.18" length="80.77" shape="2828.78,1483.04 2797.93,1425.17 2797.61,1424.57"/>
    </edge>
    <edge id="-46520921#8" from="42443811" to="42434077" priority="4" type="highway.unclassified" shape="2870.81,1557.15 2867.63,1551.30 2865.65,1547.64 2836.75,1494.27 2833.69,1488.61">
        <lane id="-46520921#8_0" index="0" disallow="tram rail_urban rail rail_electric rail_fast ship" speed="11.18" length="77.94" shape="2867.19,1553.83 2866.22,1552.07 2864.24,1548.40 2835.70,1495.68"/>
    </edge>